version 3
run WithBeaconing-0-20240904-22:31:23-41088
attr configname WithBeaconing
attr datetime 20240904-22:31:23
attr datetimef 20240904-223123
attr experiment WithBeaconing
attr inifile omnetpp.ini
attr iterationvars ""
attr iterationvarsd ""
attr iterationvarsf ""
attr measurement ""
attr network VANET
attr processid 41088
attr repetition 0
attr replication #0
attr resultdir results
attr runnumber 0
attr seedset 0
config image-path ../../veins/images
config *.rsu[*].appl.sendBeacons true
config *.node[*].appl.sendBeacons true
config cmdenv-express-mode true
config cmdenv-autoflush true
config cmdenv-status-frequency 1s
config **.cmdenv-log-level info
config image-path ../../images
config network VANET
config debug-on-errors true
config print-undisposed true
config sim-time-limit 200s
config **.scalar-recording true
config **.vector-recording true
config *.playgroundSizeX 2500m
config *.playgroundSizeY 2500m
config *.playgroundSizeZ 50m
config *.annotations.draw true
config *.obstacles.obstacles "xmldoc(\"config.xml\", \"//AnalogueModel[@type='SimpleObstacleShadowing']/obstacles\")"
config *.manager.updateInterval 1s
config *.manager.host "\"localhost\""
config *.manager.port 9999
config *.manager.autoShutdown true
config *.manager.launchConfig "xmldoc(\"erlangen.launchd.xml\")"
config *.rsu[0].mobility.x 2000
config *.rsu[0].mobility.y 2000
config *.rsu[0].mobility.z 3
config *.rsu[*].applType "\"biblioteca_veins.RSUApp\""
config *.rsu[*].appl.headerLength "80 bit"
config *.rsu[*].appl.sendBeacons false
config *.rsu[*].appl.dataOnSch false
config *.rsu[*].appl.beaconInterval 1s
config *.rsu[*].appl.beaconUserPriority 7
config *.rsu[*].appl.dataUserPriority 5
config *.rsu[*].nic.phy80211p.antennaOffsetZ "0 m"
config *.connectionManager.sendDirect true
config *.connectionManager.maxInterfDist 2600m
config *.connectionManager.drawMaxIntfDist false
config *.**.nic.mac1609_4.useServiceChannel false
config *.**.nic.mac1609_4.txPower 20mW
config *.**.nic.mac1609_4.bitrate 6Mbps
config *.**.nic.phy80211p.minPowerLevel -110dBm
config *.**.nic.phy80211p.useNoiseFloor true
config *.**.nic.phy80211p.noiseFloor -98dBm
config *.**.nic.phy80211p.decider "xmldoc(\"config.xml\")"
config *.**.nic.phy80211p.analogueModels "xmldoc(\"config.xml\")"
config *.**.nic.phy80211p.usePropagationDelay true
config *.**.nic.phy80211p.antenna "xmldoc(\"antenna.xml\", \"/root/Antenna[@id='monopole']\")"
config *.node[*].nic.phy80211p.antennaOffsetY "0 m"
config *.node[*].nic.phy80211p.antennaOffsetZ "1.895 m"
config *.node[*].applType "\"biblioteca_veins.CarApp\""
config *.node[*].appl.headerLength "80 bit"
config *.node[*].appl.sendBeacons false
config *.node[*].appl.dataOnSch false
config *.node[*].appl.beaconInterval 1s
config *.node[*].veinsmobility.x 0
config *.node[*].veinsmobility.y 0
config *.node[*].veinsmobility.z 0
config *.node[*].veinsmobility.setHostSpeed false
config *.node[*0].veinsmobility.accidentCount 1
config *.node[*0].veinsmobility.accidentStart 73s
config *.node[*0].veinsmobility.accidentDuration 50s

par VANET.obstacles typename "\"org.car2x.veins.modules.obstacle.ObstacleControl\""
par VANET.obstacles obstacles "<obstacles>...</obstacles> at /home/andreia/Projeto/workspace/biblioteca_veins/simulations//config.xml:40"
par VANET.obstacles gridCellSize 250
par VANET.annotations typename "\"org.car2x.veins.modules.world.annotations.AnnotationManager\""
par VANET.annotations draw true
par VANET.annotations annotations "<annotations/> at content:1"
par VANET.connectionManager typename "\"org.car2x.veins.base.connectionManager.ConnectionManager\""
par VANET.connectionManager sendDirect true
par VANET.connectionManager maxInterfDist 2600m
attr unit m
par VANET.connectionManager drawMaxIntfDist false
par VANET.world typename "\"org.car2x.veins.base.modules.BaseWorldUtility\""
par VANET.world playgroundSizeX 2500m
attr unit m
par VANET.world playgroundSizeY 2500m
attr unit m
par VANET.world playgroundSizeZ 50m
attr unit m
par VANET.world useTorus false
par VANET.world use2D false
par VANET.manager typename "\"org.car2x.veins.modules.mobility.traci.TraCIScenarioManagerLaunchd\""
par VANET.manager connectAt 0s
attr unit s
par VANET.manager firstStepAt -1s
attr unit s
par VANET.manager updateInterval 1s
attr unit s
par VANET.manager moduleType "\"org.car2x.veins.nodes.Car\""
par VANET.manager moduleName "\"node\""
par VANET.manager moduleDisplayString "\"*='i=veins/node/car;is=vs'\""
par VANET.manager trafficLightModuleType "\"\""
par VANET.manager trafficLightModuleName "\"tls\""
par VANET.manager trafficLightFilter "\"\""
par VANET.manager trafficLightModuleDisplayString "\"i=misc/node2;is=vs;r=0,,#707070,1\""
par VANET.manager host "\"localhost\""
par VANET.manager port 9999
par VANET.manager seed -1
par VANET.manager autoShutdown true
par VANET.manager margin 25
par VANET.manager roiRoads "\"\""
par VANET.manager roiRects "\"\""
par VANET.manager penetrationRate 1
par VANET.manager ignoreGuiCommands false
par VANET.manager launchConfig "<launch>...</launch> at /home/andreia/Projeto/workspace/biblioteca_veins/simulations//erlangen.launchd.xml:35"
scalar VANET.manager roiArea 0
par VANET.roadsCanvasVisualizer typename "\"org.car2x.veins.visualizer.roads.RoadsCanvasVisualizer\""
par VANET.roadsCanvasVisualizer enabled true
par VANET.roadsCanvasVisualizer lineZIndex -1
par VANET.roadsCanvasVisualizer lineColor "\"firebrick4\""
par VANET.roadsCanvasVisualizer lineWidth 1
par VANET.roadsCanvasVisualizer lineWidthZoom false
par VANET.node[0].appl typename "\"biblioteca_veins.CarApp\""
par VANET.node[0].appl headerLength 80bit
attr unit bit
par VANET.node[0].appl sendBeacons true
par VANET.node[0].appl beaconLengthBits 256bit
attr unit bit
par VANET.node[0].appl beaconUserPriority 7
par VANET.node[0].appl beaconInterval 1s
attr unit s
par VANET.node[0].appl dataLengthBits 1024bit
attr unit bit
par VANET.node[0].appl dataOnSch false
par VANET.node[0].appl dataUserPriority 7
par VANET.node[0].appl avoidBeaconSynchronization true
par VANET.node[0].appl sendWSA false
par VANET.node[0].appl wsaLengthBits 250bit
attr unit bit
par VANET.node[0].appl wsaInterval 1s
attr unit s
scalar VANET.node[0].appl generatedWSMs 1
scalar VANET.node[0].appl receivedWSMs 25
scalar VANET.node[0].appl generatedBSMs 144
scalar VANET.node[0].appl receivedBSMs 1521
scalar VANET.node[0].appl generatedWSAs 0
scalar VANET.node[0].appl receivedWSAs 0
par VANET.node[0].nic.phy80211p typename "\"org.car2x.veins.modules.phy.PhyLayer80211p\""
par VANET.node[0].nic.phy80211p recordStats false
par VANET.node[0].nic.phy80211p usePropagationDelay true
par VANET.node[0].nic.phy80211p noiseFloor -98dBm
attr unit dBm
par VANET.node[0].nic.phy80211p useNoiseFloor true
par VANET.node[0].nic.phy80211p antenna "<Antenna type=\"SampledAntenna1D\" id=\"monopole\">...</Antenna> at /home/andreia/Projeto/workspace/biblioteca_veins/simulations//antenna.xml:35"
par VANET.node[0].nic.phy80211p antennaOffsetX 0m
attr unit m
par VANET.node[0].nic.phy80211p antennaOffsetY 0m
attr unit m
par VANET.node[0].nic.phy80211p antennaOffsetZ 1.895m
attr unit m
par VANET.node[0].nic.phy80211p antennaOffsetYaw 0rad
attr unit rad
par VANET.node[0].nic.phy80211p analogueModels "<root>...</root> at /home/andreia/Projeto/workspace/biblioteca_veins/simulations//config.xml:34"
par VANET.node[0].nic.phy80211p decider "<root>...</root> at /home/andreia/Projeto/workspace/biblioteca_veins/simulations//config.xml:34"
par VANET.node[0].nic.phy80211p minPowerLevel -110dBm
attr unit dBm
par VANET.node[0].nic.phy80211p timeRXToTX 0s
attr unit s
par VANET.node[0].nic.phy80211p timeRXToSleep 0s
attr unit s
par VANET.node[0].nic.phy80211p timeTXToRX 0s
attr unit s
par VANET.node[0].nic.phy80211p timeTXToSleep 0s
attr unit s
par VANET.node[0].nic.phy80211p timeSleepToRX 0s
attr unit s
par VANET.node[0].nic.phy80211p timeSleepToTX 0s
attr unit s
par VANET.node[0].nic.phy80211p initialRadioState 0
par VANET.node[0].nic.phy80211p radioMinAtt 1
par VANET.node[0].nic.phy80211p radioMaxAtt 0
par VANET.node[0].nic.phy80211p nbRadioChannels 1
par VANET.node[0].nic.phy80211p initialRadioChannel 0
par VANET.node[0].nic.phy80211p ccaThreshold -65dBm
attr unit dBm
par VANET.node[0].nic.phy80211p collectCollisionStatistics false
par VANET.node[0].nic.phy80211p allowTxDuringRx false
scalar VANET.node[0].nic.phy80211p busyTime 0.0011876300567384
par VANET.node[0].nic.mac1609_4 typename "\"org.car2x.veins.modules.mac.ieee80211p.Mac1609_4\""
par VANET.node[0].nic.mac1609_4 notAffectedByHostState false
par VANET.node[0].nic.mac1609_4 headerLength 0bit
attr unit bit
par VANET.node[0].nic.mac1609_4 address "\"auto\""
par VANET.node[0].nic.mac1609_4 useServiceChannel false
par VANET.node[0].nic.mac1609_4 serviceChannel 1
par VANET.node[0].nic.mac1609_4 bitrate 6000000bps
attr unit bps
par VANET.node[0].nic.mac1609_4 syncOffset 0.0003s
attr unit s
par VANET.node[0].nic.mac1609_4 txPower 20mW
attr unit mW
par VANET.node[0].nic.mac1609_4 queueSize 0
par VANET.node[0].nic.mac1609_4 dot11RTSThreshold 12000bit
attr unit bit
par VANET.node[0].nic.mac1609_4 dot11ShortRetryLimit 7
par VANET.node[0].nic.mac1609_4 dot11LongRetryLimit 4
par VANET.node[0].nic.mac1609_4 ackLength 112bit
attr unit bit
par VANET.node[0].nic.mac1609_4 useAcks false
par VANET.node[0].nic.mac1609_4 frameErrorRate 0
par VANET.node[0].nic.mac1609_4 ackErrorRate 0
scalar VANET.node[0].nic.mac1609_4 ReceivedUnicastPackets 0
scalar VANET.node[0].nic.mac1609_4 ReceivedBroadcasts 1546
scalar VANET.node[0].nic.mac1609_4 SentPackets 145
scalar VANET.node[0].nic.mac1609_4 SentAcknowledgements 0
scalar VANET.node[0].nic.mac1609_4 RetriesExceeded 0
scalar VANET.node[0].nic.mac1609_4 SNIRLostPackets 62
scalar VANET.node[0].nic.mac1609_4 RXTXLostPackets 0
scalar VANET.node[0].nic.mac1609_4 TotalLostPackets 62
scalar VANET.node[0].nic.mac1609_4 DroppedPacketsInMac 0
scalar VANET.node[0].nic.mac1609_4 TooLittleTime 0
scalar VANET.node[0].nic.mac1609_4 TimesIntoBackoff 145
scalar VANET.node[0].nic.mac1609_4 SlotsBackoff 232
scalar VANET.node[0].nic.mac1609_4 NumInternalContention 0
scalar VANET.node[0].nic.mac1609_4 totalBusyTime 0.185913
scalar VANET.node[0].nic.mac1609_4 retriesExceeded:count 0
attr recordingmode count
attr source org_car2x_veins_modules_mac_sigRetriesExceeded
scalar VANET.node[0].nic.mac1609_4 sentAcks:count 0
attr recordingmode count
attr source org_car2x_veins_modules_mac_sigSentAck
scalar VANET.node[0].nic.mac1609_4 sentPackets:count 145
attr recordingmode count
attr source org_car2x_veins_modules_mac_sigSentPacket
scalar VANET.node[0].nic.mac1609_4 collisions:count 0
attr recordingmode count
attr source org_car2x_veins_modules_mac_sigCollision
scalar VANET.node[0].nic.mac1609_4 channelBusy:timeavg 0.0012945348659615
attr recordingmode timeavg
attr source org_car2x_veins_modules_mac_sigChannelBusy
par VANET.node[0].nic typename "\"org.car2x.veins.modules.nic.Nic80211p\""
par VANET.node[0].nic connectionManagerName "\"connectionManager\""
par VANET.node[0].veinsmobility typename "\"org.car2x.veins.modules.mobility.traci.TraCIMobility\""
par VANET.node[0].veinsmobility notAffectedByHostState true
par VANET.node[0].veinsmobility x 0
par VANET.node[0].veinsmobility y 0
par VANET.node[0].veinsmobility z 0
par VANET.node[0].veinsmobility xOrientation 1
par VANET.node[0].veinsmobility yOrientation 0
par VANET.node[0].veinsmobility zOrientation 0
par VANET.node[0].veinsmobility hostPositionOffset 0m
attr unit m
par VANET.node[0].veinsmobility setHostSpeed false
par VANET.node[0].veinsmobility accidentCount 1
par VANET.node[0].veinsmobility accidentStart 73s
attr unit s
par VANET.node[0].veinsmobility accidentDuration 50s
attr unit s
par VANET.node[0].veinsmobility accidentInterval "uniform(30s, 60s)"
attr unit s
scalar VANET.node[0].veinsmobility startTime 1
scalar VANET.node[0].veinsmobility totalTime 143
scalar VANET.node[0].veinsmobility stopTime 144.61374489664
scalar VANET.node[0].veinsmobility minSpeed 0
scalar VANET.node[0].veinsmobility maxSpeed 13.999815066161
scalar VANET.node[0].veinsmobility totalDistance 1188.3804122981
scalar VANET.node[0].veinsmobility totalCO2Emission 294.82785692412
par VANET.node[0] typename "\"org.car2x.veins.nodes.Car\""
par VANET.node[0] applType "\"biblioteca_veins.CarApp\""
par VANET.node[0] nicType "\"Nic80211p\""
par VANET.node[0] veinsmobilityType "\"org.car2x.veins.modules.mobility.traci.TraCIMobility\""
par VANET.node[1].appl typename "\"biblioteca_veins.CarApp\""
par VANET.node[1].appl headerLength 80bit
attr unit bit
par VANET.node[1].appl sendBeacons true
par VANET.node[1].appl beaconLengthBits 256bit
attr unit bit
par VANET.node[1].appl beaconUserPriority 7
par VANET.node[1].appl beaconInterval 1s
attr unit s
par VANET.node[1].appl dataLengthBits 1024bit
attr unit bit
par VANET.node[1].appl dataOnSch false
par VANET.node[1].appl dataUserPriority 7
par VANET.node[1].appl avoidBeaconSynchronization true
par VANET.node[1].appl sendWSA false
par VANET.node[1].appl wsaLengthBits 250bit
attr unit bit
par VANET.node[1].appl wsaInterval 1s
attr unit s
scalar VANET.node[1].appl generatedWSMs 1
scalar VANET.node[1].appl receivedWSMs 26
scalar VANET.node[1].appl generatedBSMs 140
scalar VANET.node[1].appl receivedBSMs 1580
scalar VANET.node[1].appl generatedWSAs 0
scalar VANET.node[1].appl receivedWSAs 0
par VANET.node[1].nic.phy80211p typename "\"org.car2x.veins.modules.phy.PhyLayer80211p\""
par VANET.node[1].nic.phy80211p recordStats false
par VANET.node[1].nic.phy80211p usePropagationDelay true
par VANET.node[1].nic.phy80211p noiseFloor -98dBm
attr unit dBm
par VANET.node[1].nic.phy80211p useNoiseFloor true
par VANET.node[1].nic.phy80211p antenna "<Antenna type=\"SampledAntenna1D\" id=\"monopole\">...</Antenna> at /home/andreia/Projeto/workspace/biblioteca_veins/simulations//antenna.xml:35"
par VANET.node[1].nic.phy80211p antennaOffsetX 0m
attr unit m
par VANET.node[1].nic.phy80211p antennaOffsetY 0m
attr unit m
par VANET.node[1].nic.phy80211p antennaOffsetZ 1.895m
attr unit m
par VANET.node[1].nic.phy80211p antennaOffsetYaw 0rad
attr unit rad
par VANET.node[1].nic.phy80211p analogueModels "<root>...</root> at /home/andreia/Projeto/workspace/biblioteca_veins/simulations//config.xml:34"
par VANET.node[1].nic.phy80211p decider "<root>...</root> at /home/andreia/Projeto/workspace/biblioteca_veins/simulations//config.xml:34"
par VANET.node[1].nic.phy80211p minPowerLevel -110dBm
attr unit dBm
par VANET.node[1].nic.phy80211p timeRXToTX 0s
attr unit s
par VANET.node[1].nic.phy80211p timeRXToSleep 0s
attr unit s
par VANET.node[1].nic.phy80211p timeTXToRX 0s
attr unit s
par VANET.node[1].nic.phy80211p timeTXToSleep 0s
attr unit s
par VANET.node[1].nic.phy80211p timeSleepToRX 0s
attr unit s
par VANET.node[1].nic.phy80211p timeSleepToTX 0s
attr unit s
par VANET.node[1].nic.phy80211p initialRadioState 0
par VANET.node[1].nic.phy80211p radioMinAtt 1
par VANET.node[1].nic.phy80211p radioMaxAtt 0
par VANET.node[1].nic.phy80211p nbRadioChannels 1
par VANET.node[1].nic.phy80211p initialRadioChannel 0
par VANET.node[1].nic.phy80211p ccaThreshold -65dBm
attr unit dBm
par VANET.node[1].nic.phy80211p collectCollisionStatistics false
par VANET.node[1].nic.phy80211p allowTxDuringRx false
scalar VANET.node[1].nic.phy80211p busyTime 0.0012492093154131
par VANET.node[1].nic.mac1609_4 typename "\"org.car2x.veins.modules.mac.ieee80211p.Mac1609_4\""
par VANET.node[1].nic.mac1609_4 notAffectedByHostState false
par VANET.node[1].nic.mac1609_4 headerLength 0bit
attr unit bit
par VANET.node[1].nic.mac1609_4 address "\"auto\""
par VANET.node[1].nic.mac1609_4 useServiceChannel false
par VANET.node[1].nic.mac1609_4 serviceChannel 1
par VANET.node[1].nic.mac1609_4 bitrate 6000000bps
attr unit bps
par VANET.node[1].nic.mac1609_4 syncOffset 0.0003s
attr unit s
par VANET.node[1].nic.mac1609_4 txPower 20mW
attr unit mW
par VANET.node[1].nic.mac1609_4 queueSize 0
par VANET.node[1].nic.mac1609_4 dot11RTSThreshold 12000bit
attr unit bit
par VANET.node[1].nic.mac1609_4 dot11ShortRetryLimit 7
par VANET.node[1].nic.mac1609_4 dot11LongRetryLimit 4
par VANET.node[1].nic.mac1609_4 ackLength 112bit
attr unit bit
par VANET.node[1].nic.mac1609_4 useAcks false
par VANET.node[1].nic.mac1609_4 frameErrorRate 0
par VANET.node[1].nic.mac1609_4 ackErrorRate 0
scalar VANET.node[1].nic.mac1609_4 ReceivedUnicastPackets 0
scalar VANET.node[1].nic.mac1609_4 ReceivedBroadcasts 1606
scalar VANET.node[1].nic.mac1609_4 SentPackets 141
scalar VANET.node[1].nic.mac1609_4 SentAcknowledgements 0
scalar VANET.node[1].nic.mac1609_4 RetriesExceeded 0
scalar VANET.node[1].nic.mac1609_4 SNIRLostPackets 51
scalar VANET.node[1].nic.mac1609_4 RXTXLostPackets 0
scalar VANET.node[1].nic.mac1609_4 TotalLostPackets 51
scalar VANET.node[1].nic.mac1609_4 DroppedPacketsInMac 0
scalar VANET.node[1].nic.mac1609_4 TooLittleTime 0
scalar VANET.node[1].nic.mac1609_4 TimesIntoBackoff 141
scalar VANET.node[1].nic.mac1609_4 SlotsBackoff 203
scalar VANET.node[1].nic.mac1609_4 NumInternalContention 0
scalar VANET.node[1].nic.mac1609_4 totalBusyTime 0.190589
scalar VANET.node[1].nic.mac1609_4 retriesExceeded:count 0
attr recordingmode count
attr source org_car2x_veins_modules_mac_sigRetriesExceeded
scalar VANET.node[1].nic.mac1609_4 sentAcks:count 0
attr recordingmode count
attr source org_car2x_veins_modules_mac_sigSentAck
scalar VANET.node[1].nic.mac1609_4 sentPackets:count 141
attr recordingmode count
attr source org_car2x_veins_modules_mac_sigSentPacket
scalar VANET.node[1].nic.mac1609_4 collisions:count 0
attr recordingmode count
attr source org_car2x_veins_modules_mac_sigCollision
scalar VANET.node[1].nic.mac1609_4 channelBusy:timeavg 0.0013554080373871
attr recordingmode timeavg
attr source org_car2x_veins_modules_mac_sigChannelBusy
par VANET.node[1].nic typename "\"org.car2x.veins.modules.nic.Nic80211p\""
par VANET.node[1].nic connectionManagerName "\"connectionManager\""
par VANET.node[1].veinsmobility typename "\"org.car2x.veins.modules.mobility.traci.TraCIMobility\""
par VANET.node[1].veinsmobility notAffectedByHostState true
par VANET.node[1].veinsmobility x 0
par VANET.node[1].veinsmobility y 0
par VANET.node[1].veinsmobility z 0
par VANET.node[1].veinsmobility xOrientation 1
par VANET.node[1].veinsmobility yOrientation 0
par VANET.node[1].veinsmobility zOrientation 0
par VANET.node[1].veinsmobility hostPositionOffset 0m
attr unit m
par VANET.node[1].veinsmobility setHostSpeed false
par VANET.node[1].veinsmobility accidentCount 0
par VANET.node[1].veinsmobility accidentStart 55.0824s
attr unit s
par VANET.node[1].veinsmobility accidentDuration "uniform(30s, 60s)"
attr unit s
par VANET.node[1].veinsmobility accidentInterval "uniform(30s, 60s)"
attr unit s
scalar VANET.node[1].veinsmobility startTime 4
scalar VANET.node[1].veinsmobility totalTime 140
scalar VANET.node[1].veinsmobility stopTime 144.61374489664
scalar VANET.node[1].veinsmobility minSpeed 0
scalar VANET.node[1].veinsmobility maxSpeed 13.999179182528
scalar VANET.node[1].veinsmobility totalDistance 1173.6018080957
scalar VANET.node[1].veinsmobility totalCO2Emission 288.99179997849
par VANET.node[1] typename "\"org.car2x.veins.nodes.Car\""
par VANET.node[1] applType "\"biblioteca_veins.CarApp\""
par VANET.node[1] nicType "\"Nic80211p\""
par VANET.node[1] veinsmobilityType "\"org.car2x.veins.modules.mobility.traci.TraCIMobility\""
par VANET.node[2].appl typename "\"biblioteca_veins.CarApp\""
par VANET.node[2].appl headerLength 80bit
attr unit bit
par VANET.node[2].appl sendBeacons true
par VANET.node[2].appl beaconLengthBits 256bit
attr unit bit
par VANET.node[2].appl beaconUserPriority 7
par VANET.node[2].appl beaconInterval 1s
attr unit s
par VANET.node[2].appl dataLengthBits 1024bit
attr unit bit
par VANET.node[2].appl dataOnSch false
par VANET.node[2].appl dataUserPriority 7
par VANET.node[2].appl avoidBeaconSynchronization true
par VANET.node[2].appl sendWSA false
par VANET.node[2].appl wsaLengthBits 250bit
attr unit bit
par VANET.node[2].appl wsaInterval 1s
attr unit s
scalar VANET.node[2].appl generatedWSMs 1
scalar VANET.node[2].appl receivedWSMs 26
scalar VANET.node[2].appl generatedBSMs 137
scalar VANET.node[2].appl receivedBSMs 1626
scalar VANET.node[2].appl generatedWSAs 0
scalar VANET.node[2].appl receivedWSAs 0
par VANET.node[2].nic.phy80211p typename "\"org.car2x.veins.modules.phy.PhyLayer80211p\""
par VANET.node[2].nic.phy80211p recordStats false
par VANET.node[2].nic.phy80211p usePropagationDelay true
par VANET.node[2].nic.phy80211p noiseFloor -98dBm
attr unit dBm
par VANET.node[2].nic.phy80211p useNoiseFloor true
par VANET.node[2].nic.phy80211p antenna "<Antenna type=\"SampledAntenna1D\" id=\"monopole\">...</Antenna> at /home/andreia/Projeto/workspace/biblioteca_veins/simulations//antenna.xml:35"
par VANET.node[2].nic.phy80211p antennaOffsetX 0m
attr unit m
par VANET.node[2].nic.phy80211p antennaOffsetY 0m
attr unit m
par VANET.node[2].nic.phy80211p antennaOffsetZ 1.895m
attr unit m
par VANET.node[2].nic.phy80211p antennaOffsetYaw 0rad
attr unit rad
par VANET.node[2].nic.phy80211p analogueModels "<root>...</root> at /home/andreia/Projeto/workspace/biblioteca_veins/simulations//config.xml:34"
par VANET.node[2].nic.phy80211p decider "<root>...</root> at /home/andreia/Projeto/workspace/biblioteca_veins/simulations//config.xml:34"
par VANET.node[2].nic.phy80211p minPowerLevel -110dBm
attr unit dBm
par VANET.node[2].nic.phy80211p timeRXToTX 0s
attr unit s
par VANET.node[2].nic.phy80211p timeRXToSleep 0s
attr unit s
par VANET.node[2].nic.phy80211p timeTXToRX 0s
attr unit s
par VANET.node[2].nic.phy80211p timeTXToSleep 0s
attr unit s
par VANET.node[2].nic.phy80211p timeSleepToRX 0s
attr unit s
par VANET.node[2].nic.phy80211p timeSleepToTX 0s
attr unit s
par VANET.node[2].nic.phy80211p initialRadioState 0
par VANET.node[2].nic.phy80211p radioMinAtt 1
par VANET.node[2].nic.phy80211p radioMaxAtt 0
par VANET.node[2].nic.phy80211p nbRadioChannels 1
par VANET.node[2].nic.phy80211p initialRadioChannel 0
par VANET.node[2].nic.phy80211p ccaThreshold -65dBm
attr unit dBm
par VANET.node[2].nic.phy80211p collectCollisionStatistics false
par VANET.node[2].nic.phy80211p allowTxDuringRx false
scalar VANET.node[2].nic.phy80211p busyTime 0.0013127177095259
par VANET.node[2].nic.mac1609_4 typename "\"org.car2x.veins.modules.mac.ieee80211p.Mac1609_4\""
par VANET.node[2].nic.mac1609_4 notAffectedByHostState false
par VANET.node[2].nic.mac1609_4 headerLength 0bit
attr unit bit
par VANET.node[2].nic.mac1609_4 address "\"auto\""
par VANET.node[2].nic.mac1609_4 useServiceChannel false
par VANET.node[2].nic.mac1609_4 serviceChannel 1
par VANET.node[2].nic.mac1609_4 bitrate 6000000bps
attr unit bps
par VANET.node[2].nic.mac1609_4 syncOffset 0.0003s
attr unit s
par VANET.node[2].nic.mac1609_4 txPower 20mW
attr unit mW
par VANET.node[2].nic.mac1609_4 queueSize 0
par VANET.node[2].nic.mac1609_4 dot11RTSThreshold 12000bit
attr unit bit
par VANET.node[2].nic.mac1609_4 dot11ShortRetryLimit 7
par VANET.node[2].nic.mac1609_4 dot11LongRetryLimit 4
par VANET.node[2].nic.mac1609_4 ackLength 112bit
attr unit bit
par VANET.node[2].nic.mac1609_4 useAcks false
par VANET.node[2].nic.mac1609_4 frameErrorRate 0
par VANET.node[2].nic.mac1609_4 ackErrorRate 0
scalar VANET.node[2].nic.mac1609_4 ReceivedUnicastPackets 0
scalar VANET.node[2].nic.mac1609_4 ReceivedBroadcasts 1652
scalar VANET.node[2].nic.mac1609_4 SentPackets 138
scalar VANET.node[2].nic.mac1609_4 SentAcknowledgements 0
scalar VANET.node[2].nic.mac1609_4 RetriesExceeded 0
scalar VANET.node[2].nic.mac1609_4 SNIRLostPackets 53
scalar VANET.node[2].nic.mac1609_4 RXTXLostPackets 0
scalar VANET.node[2].nic.mac1609_4 TotalLostPackets 53
scalar VANET.node[2].nic.mac1609_4 DroppedPacketsInMac 0
scalar VANET.node[2].nic.mac1609_4 TooLittleTime 0
scalar VANET.node[2].nic.mac1609_4 TimesIntoBackoff 138
scalar VANET.node[2].nic.mac1609_4 SlotsBackoff 194
scalar VANET.node[2].nic.mac1609_4 NumInternalContention 0
scalar VANET.node[2].nic.mac1609_4 totalBusyTime 0.195266
scalar VANET.node[2].nic.mac1609_4 retriesExceeded:count 0
attr recordingmode count
attr source org_car2x_veins_modules_mac_sigRetriesExceeded
scalar VANET.node[2].nic.mac1609_4 sentAcks:count 0
attr recordingmode count
attr source org_car2x_veins_modules_mac_sigSentAck
scalar VANET.node[2].nic.mac1609_4 sentPackets:count 138
attr recordingmode count
attr source org_car2x_veins_modules_mac_sigSentPacket
scalar VANET.node[2].nic.mac1609_4 collisions:count 0
attr recordingmode count
attr source org_car2x_veins_modules_mac_sigCollision
scalar VANET.node[2].nic.mac1609_4 channelBusy:timeavg 0.0014189425638163
attr recordingmode timeavg
attr source org_car2x_veins_modules_mac_sigChannelBusy
par VANET.node[2].nic typename "\"org.car2x.veins.modules.nic.Nic80211p\""
par VANET.node[2].nic connectionManagerName "\"connectionManager\""
par VANET.node[2].veinsmobility typename "\"org.car2x.veins.modules.mobility.traci.TraCIMobility\""
par VANET.node[2].veinsmobility notAffectedByHostState true
par VANET.node[2].veinsmobility x 0
par VANET.node[2].veinsmobility y 0
par VANET.node[2].veinsmobility z 0
par VANET.node[2].veinsmobility xOrientation 1
par VANET.node[2].veinsmobility yOrientation 0
par VANET.node[2].veinsmobility zOrientation 0
par VANET.node[2].veinsmobility hostPositionOffset 0m
attr unit m
par VANET.node[2].veinsmobility setHostSpeed false
par VANET.node[2].veinsmobility accidentCount 0
par VANET.node[2].veinsmobility accidentStart 50.9289s
attr unit s
par VANET.node[2].veinsmobility accidentDuration "uniform(30s, 60s)"
attr unit s
par VANET.node[2].veinsmobility accidentInterval "uniform(30s, 60s)"
attr unit s
scalar VANET.node[2].veinsmobility startTime 7
scalar VANET.node[2].veinsmobility totalTime 137
scalar VANET.node[2].veinsmobility stopTime 144.61374489664
scalar VANET.node[2].veinsmobility minSpeed 0
scalar VANET.node[2].veinsmobility maxSpeed 13.994902517959
scalar VANET.node[2].veinsmobility totalDistance 1158.4298241183
scalar VANET.node[2].veinsmobility totalCO2Emission 284.49022542451
par VANET.node[2] typename "\"org.car2x.veins.nodes.Car\""
par VANET.node[2] applType "\"biblioteca_veins.CarApp\""
par VANET.node[2] nicType "\"Nic80211p\""
par VANET.node[2] veinsmobilityType "\"org.car2x.veins.modules.mobility.traci.TraCIMobility\""
par VANET.node[3].appl typename "\"biblioteca_veins.CarApp\""
par VANET.node[3].appl headerLength 80bit
attr unit bit
par VANET.node[3].appl sendBeacons true
par VANET.node[3].appl beaconLengthBits 256bit
attr unit bit
par VANET.node[3].appl beaconUserPriority 7
par VANET.node[3].appl beaconInterval 1s
attr unit s
par VANET.node[3].appl dataLengthBits 1024bit
attr unit bit
par VANET.node[3].appl dataOnSch false
par VANET.node[3].appl dataUserPriority 7
par VANET.node[3].appl avoidBeaconSynchronization true
par VANET.node[3].appl sendWSA false
par VANET.node[3].appl wsaLengthBits 250bit
attr unit bit
par VANET.node[3].appl wsaInterval 1s
attr unit s
scalar VANET.node[3].appl generatedWSMs 1
scalar VANET.node[3].appl receivedWSMs 26
scalar VANET.node[3].appl generatedBSMs 134
scalar VANET.node[3].appl receivedBSMs 1660
scalar VANET.node[3].appl generatedWSAs 0
scalar VANET.node[3].appl receivedWSAs 0
par VANET.node[3].nic.phy80211p typename "\"org.car2x.veins.modules.phy.PhyLayer80211p\""
par VANET.node[3].nic.phy80211p recordStats false
par VANET.node[3].nic.phy80211p usePropagationDelay true
par VANET.node[3].nic.phy80211p noiseFloor -98dBm
attr unit dBm
par VANET.node[3].nic.phy80211p useNoiseFloor true
par VANET.node[3].nic.phy80211p antenna "<Antenna type=\"SampledAntenna1D\" id=\"monopole\">...</Antenna> at /home/andreia/Projeto/workspace/biblioteca_veins/simulations//antenna.xml:35"
par VANET.node[3].nic.phy80211p antennaOffsetX 0m
attr unit m
par VANET.node[3].nic.phy80211p antennaOffsetY 0m
attr unit m
par VANET.node[3].nic.phy80211p antennaOffsetZ 1.895m
attr unit m
par VANET.node[3].nic.phy80211p antennaOffsetYaw 0rad
attr unit rad
par VANET.node[3].nic.phy80211p analogueModels "<root>...</root> at /home/andreia/Projeto/workspace/biblioteca_veins/simulations//config.xml:34"
par VANET.node[3].nic.phy80211p decider "<root>...</root> at /home/andreia/Projeto/workspace/biblioteca_veins/simulations//config.xml:34"
par VANET.node[3].nic.phy80211p minPowerLevel -110dBm
attr unit dBm
par VANET.node[3].nic.phy80211p timeRXToTX 0s
attr unit s
par VANET.node[3].nic.phy80211p timeRXToSleep 0s
attr unit s
par VANET.node[3].nic.phy80211p timeTXToRX 0s
attr unit s
par VANET.node[3].nic.phy80211p timeTXToSleep 0s
attr unit s
par VANET.node[3].nic.phy80211p timeSleepToRX 0s
attr unit s
par VANET.node[3].nic.phy80211p timeSleepToTX 0s
attr unit s
par VANET.node[3].nic.phy80211p initialRadioState 0
par VANET.node[3].nic.phy80211p radioMinAtt 1
par VANET.node[3].nic.phy80211p radioMaxAtt 0
par VANET.node[3].nic.phy80211p nbRadioChannels 1
par VANET.node[3].nic.phy80211p initialRadioChannel 0
par VANET.node[3].nic.phy80211p ccaThreshold -65dBm
attr unit dBm
par VANET.node[3].nic.phy80211p collectCollisionStatistics false
par VANET.node[3].nic.phy80211p allowTxDuringRx false
scalar VANET.node[3].nic.phy80211p busyTime 0.0013628326003475
par VANET.node[3].nic.mac1609_4 typename "\"org.car2x.veins.modules.mac.ieee80211p.Mac1609_4\""
par VANET.node[3].nic.mac1609_4 notAffectedByHostState false
par VANET.node[3].nic.mac1609_4 headerLength 0bit
attr unit bit
par VANET.node[3].nic.mac1609_4 address "\"auto\""
par VANET.node[3].nic.mac1609_4 useServiceChannel false
par VANET.node[3].nic.mac1609_4 serviceChannel 1
par VANET.node[3].nic.mac1609_4 bitrate 6000000bps
attr unit bps
par VANET.node[3].nic.mac1609_4 syncOffset 0.0003s
attr unit s
par VANET.node[3].nic.mac1609_4 txPower 20mW
attr unit mW
par VANET.node[3].nic.mac1609_4 queueSize 0
par VANET.node[3].nic.mac1609_4 dot11RTSThreshold 12000bit
attr unit bit
par VANET.node[3].nic.mac1609_4 dot11ShortRetryLimit 7
par VANET.node[3].nic.mac1609_4 dot11LongRetryLimit 4
par VANET.node[3].nic.mac1609_4 ackLength 112bit
attr unit bit
par VANET.node[3].nic.mac1609_4 useAcks false
par VANET.node[3].nic.mac1609_4 frameErrorRate 0
par VANET.node[3].nic.mac1609_4 ackErrorRate 0
scalar VANET.node[3].nic.mac1609_4 ReceivedUnicastPackets 0
scalar VANET.node[3].nic.mac1609_4 ReceivedBroadcasts 1686
scalar VANET.node[3].nic.mac1609_4 SentPackets 135
scalar VANET.node[3].nic.mac1609_4 SentAcknowledgements 0
scalar VANET.node[3].nic.mac1609_4 RetriesExceeded 0
scalar VANET.node[3].nic.mac1609_4 SNIRLostPackets 46
scalar VANET.node[3].nic.mac1609_4 RXTXLostPackets 0
scalar VANET.node[3].nic.mac1609_4 TotalLostPackets 46
scalar VANET.node[3].nic.mac1609_4 DroppedPacketsInMac 0
scalar VANET.node[3].nic.mac1609_4 TooLittleTime 0
scalar VANET.node[3].nic.mac1609_4 TimesIntoBackoff 135
scalar VANET.node[3].nic.mac1609_4 SlotsBackoff 219
scalar VANET.node[3].nic.mac1609_4 NumInternalContention 0
scalar VANET.node[3].nic.mac1609_4 totalBusyTime 0.197759
scalar VANET.node[3].nic.mac1609_4 retriesExceeded:count 0
attr recordingmode count
attr source org_car2x_veins_modules_mac_sigRetriesExceeded
scalar VANET.node[3].nic.mac1609_4 sentAcks:count 0
attr recordingmode count
attr source org_car2x_veins_modules_mac_sigSentAck
scalar VANET.node[3].nic.mac1609_4 sentPackets:count 135
attr recordingmode count
attr source org_car2x_veins_modules_mac_sigSentPacket
scalar VANET.node[3].nic.mac1609_4 collisions:count 0
attr recordingmode count
attr source org_car2x_veins_modules_mac_sigCollision
scalar VANET.node[3].nic.mac1609_4 channelBusy:timeavg 0.0014690847517232
attr recordingmode timeavg
attr source org_car2x_veins_modules_mac_sigChannelBusy
par VANET.node[3].nic typename "\"org.car2x.veins.modules.nic.Nic80211p\""
par VANET.node[3].nic connectionManagerName "\"connectionManager\""
par VANET.node[3].veinsmobility typename "\"org.car2x.veins.modules.mobility.traci.TraCIMobility\""
par VANET.node[3].veinsmobility notAffectedByHostState true
par VANET.node[3].veinsmobility x 0
par VANET.node[3].veinsmobility y 0
par VANET.node[3].veinsmobility z 0
par VANET.node[3].veinsmobility xOrientation 1
par VANET.node[3].veinsmobility yOrientation 0
par VANET.node[3].veinsmobility zOrientation 0
par VANET.node[3].veinsmobility hostPositionOffset 0m
attr unit m
par VANET.node[3].veinsmobility setHostSpeed false
par VANET.node[3].veinsmobility accidentCount 0
par VANET.node[3].veinsmobility accidentStart 34.3933s
attr unit s
par VANET.node[3].veinsmobility accidentDuration "uniform(30s, 60s)"
attr unit s
par VANET.node[3].veinsmobility accidentInterval "uniform(30s, 60s)"
attr unit s
scalar VANET.node[3].veinsmobility startTime 10
scalar VANET.node[3].veinsmobility totalTime 134
scalar VANET.node[3].veinsmobility stopTime 144.61374489664
scalar VANET.node[3].veinsmobility minSpeed 0
scalar VANET.node[3].veinsmobility maxSpeed 13.999869057706
scalar VANET.node[3].veinsmobility totalDistance 1143.655392345
scalar VANET.node[3].veinsmobility totalCO2Emission 281.63118883749
par VANET.node[3] typename "\"org.car2x.veins.nodes.Car\""
par VANET.node[3] applType "\"biblioteca_veins.CarApp\""
par VANET.node[3] nicType "\"Nic80211p\""
par VANET.node[3] veinsmobilityType "\"org.car2x.veins.modules.mobility.traci.TraCIMobility\""
par VANET.node[4].appl typename "\"biblioteca_veins.CarApp\""
par VANET.node[4].appl headerLength 80bit
attr unit bit
par VANET.node[4].appl sendBeacons true
par VANET.node[4].appl beaconLengthBits 256bit
attr unit bit
par VANET.node[4].appl beaconUserPriority 7
par VANET.node[4].appl beaconInterval 1s
attr unit s
par VANET.node[4].appl dataLengthBits 1024bit
attr unit bit
par VANET.node[4].appl dataOnSch false
par VANET.node[4].appl dataUserPriority 7
par VANET.node[4].appl avoidBeaconSynchronization true
par VANET.node[4].appl sendWSA false
par VANET.node[4].appl wsaLengthBits 250bit
attr unit bit
par VANET.node[4].appl wsaInterval 1s
attr unit s
scalar VANET.node[4].appl generatedWSMs 1
scalar VANET.node[4].appl receivedWSMs 26
scalar VANET.node[4].appl generatedBSMs 132
scalar VANET.node[4].appl receivedBSMs 1727
scalar VANET.node[4].appl generatedWSAs 0
scalar VANET.node[4].appl receivedWSAs 0
par VANET.node[4].nic.phy80211p typename "\"org.car2x.veins.modules.phy.PhyLayer80211p\""
par VANET.node[4].nic.phy80211p recordStats false
par VANET.node[4].nic.phy80211p usePropagationDelay true
par VANET.node[4].nic.phy80211p noiseFloor -98dBm
attr unit dBm
par VANET.node[4].nic.phy80211p useNoiseFloor true
par VANET.node[4].nic.phy80211p antenna "<Antenna type=\"SampledAntenna1D\" id=\"monopole\">...</Antenna> at /home/andreia/Projeto/workspace/biblioteca_veins/simulations//antenna.xml:35"
par VANET.node[4].nic.phy80211p antennaOffsetX 0m
attr unit m
par VANET.node[4].nic.phy80211p antennaOffsetY 0m
attr unit m
par VANET.node[4].nic.phy80211p antennaOffsetZ 1.895m
attr unit m
par VANET.node[4].nic.phy80211p antennaOffsetYaw 0rad
attr unit rad
par VANET.node[4].nic.phy80211p analogueModels "<root>...</root> at /home/andreia/Projeto/workspace/biblioteca_veins/simulations//config.xml:34"
par VANET.node[4].nic.phy80211p decider "<root>...</root> at /home/andreia/Projeto/workspace/biblioteca_veins/simulations//config.xml:34"
par VANET.node[4].nic.phy80211p minPowerLevel -110dBm
attr unit dBm
par VANET.node[4].nic.phy80211p timeRXToTX 0s
attr unit s
par VANET.node[4].nic.phy80211p timeRXToSleep 0s
attr unit s
par VANET.node[4].nic.phy80211p timeTXToRX 0s
attr unit s
par VANET.node[4].nic.phy80211p timeTXToSleep 0s
attr unit s
par VANET.node[4].nic.phy80211p timeSleepToRX 0s
attr unit s
par VANET.node[4].nic.phy80211p timeSleepToTX 0s
attr unit s
par VANET.node[4].nic.phy80211p initialRadioState 0
par VANET.node[4].nic.phy80211p radioMinAtt 1
par VANET.node[4].nic.phy80211p radioMaxAtt 0
par VANET.node[4].nic.phy80211p nbRadioChannels 1
par VANET.node[4].nic.phy80211p initialRadioChannel 0
par VANET.node[4].nic.phy80211p ccaThreshold -65dBm
attr unit dBm
par VANET.node[4].nic.phy80211p collectCollisionStatistics false
par VANET.node[4].nic.phy80211p allowTxDuringRx false
scalar VANET.node[4].nic.phy80211p busyTime 0.0014428888118725
par VANET.node[4].nic.mac1609_4 typename "\"org.car2x.veins.modules.mac.ieee80211p.Mac1609_4\""
par VANET.node[4].nic.mac1609_4 notAffectedByHostState false
par VANET.node[4].nic.mac1609_4 headerLength 0bit
attr unit bit
par VANET.node[4].nic.mac1609_4 address "\"auto\""
par VANET.node[4].nic.mac1609_4 useServiceChannel false
par VANET.node[4].nic.mac1609_4 serviceChannel 1
par VANET.node[4].nic.mac1609_4 bitrate 6000000bps
attr unit bps
par VANET.node[4].nic.mac1609_4 syncOffset 0.0003s
attr unit s
par VANET.node[4].nic.mac1609_4 txPower 20mW
attr unit mW
par VANET.node[4].nic.mac1609_4 queueSize 0
par VANET.node[4].nic.mac1609_4 dot11RTSThreshold 12000bit
attr unit bit
par VANET.node[4].nic.mac1609_4 dot11ShortRetryLimit 7
par VANET.node[4].nic.mac1609_4 dot11LongRetryLimit 4
par VANET.node[4].nic.mac1609_4 ackLength 112bit
attr unit bit
par VANET.node[4].nic.mac1609_4 useAcks false
par VANET.node[4].nic.mac1609_4 frameErrorRate 0
par VANET.node[4].nic.mac1609_4 ackErrorRate 0
scalar VANET.node[4].nic.mac1609_4 ReceivedUnicastPackets 0
scalar VANET.node[4].nic.mac1609_4 ReceivedBroadcasts 1753
scalar VANET.node[4].nic.mac1609_4 SentPackets 133
scalar VANET.node[4].nic.mac1609_4 SentAcknowledgements 0
scalar VANET.node[4].nic.mac1609_4 RetriesExceeded 0
scalar VANET.node[4].nic.mac1609_4 SNIRLostPackets 41
scalar VANET.node[4].nic.mac1609_4 RXTXLostPackets 0
scalar VANET.node[4].nic.mac1609_4 TotalLostPackets 41
scalar VANET.node[4].nic.mac1609_4 DroppedPacketsInMac 0
scalar VANET.node[4].nic.mac1609_4 TooLittleTime 0
scalar VANET.node[4].nic.mac1609_4 TimesIntoBackoff 133
scalar VANET.node[4].nic.mac1609_4 SlotsBackoff 234
scalar VANET.node[4].nic.mac1609_4 NumInternalContention 0
scalar VANET.node[4].nic.mac1609_4 totalBusyTime 0.203997
scalar VANET.node[4].nic.mac1609_4 retriesExceeded:count 0
attr recordingmode count
attr source org_car2x_veins_modules_mac_sigRetriesExceeded
scalar VANET.node[4].nic.mac1609_4 sentAcks:count 0
attr recordingmode count
attr source org_car2x_veins_modules_mac_sigSentAck
scalar VANET.node[4].nic.mac1609_4 sentPackets:count 133
attr recordingmode count
attr source org_car2x_veins_modules_mac_sigSentPacket
scalar VANET.node[4].nic.mac1609_4 collisions:count 0
attr recordingmode count
attr source org_car2x_veins_modules_mac_sigCollision
scalar VANET.node[4].nic.mac1609_4 channelBusy:timeavg 0.0015499672937671
attr recordingmode timeavg
attr source org_car2x_veins_modules_mac_sigChannelBusy
par VANET.node[4].nic typename "\"org.car2x.veins.modules.nic.Nic80211p\""
par VANET.node[4].nic connectionManagerName "\"connectionManager\""
par VANET.node[4].veinsmobility typename "\"org.car2x.veins.modules.mobility.traci.TraCIMobility\""
par VANET.node[4].veinsmobility notAffectedByHostState true
par VANET.node[4].veinsmobility x 0
par VANET.node[4].veinsmobility y 0
par VANET.node[4].veinsmobility z 0
par VANET.node[4].veinsmobility xOrientation 1
par VANET.node[4].veinsmobility yOrientation 0
par VANET.node[4].veinsmobility zOrientation 0
par VANET.node[4].veinsmobility hostPositionOffset 0m
attr unit m
par VANET.node[4].veinsmobility setHostSpeed false
par VANET.node[4].veinsmobility accidentCount 0
par VANET.node[4].veinsmobility accidentStart 58.3312s
attr unit s
par VANET.node[4].veinsmobility accidentDuration "uniform(30s, 60s)"
attr unit s
par VANET.node[4].veinsmobility accidentInterval "uniform(30s, 60s)"
attr unit s
scalar VANET.node[4].veinsmobility startTime 13
scalar VANET.node[4].veinsmobility totalTime 131
scalar VANET.node[4].veinsmobility stopTime 144.61374489664
scalar VANET.node[4].veinsmobility minSpeed 0
scalar VANET.node[4].veinsmobility maxSpeed 13.999156328384
scalar VANET.node[4].veinsmobility totalDistance 1124.5621178736
scalar VANET.node[4].veinsmobility totalCO2Emission 272.57352113422
par VANET.node[4] typename "\"org.car2x.veins.nodes.Car\""
par VANET.node[4] applType "\"biblioteca_veins.CarApp\""
par VANET.node[4] nicType "\"Nic80211p\""
par VANET.node[4] veinsmobilityType "\"org.car2x.veins.modules.mobility.traci.TraCIMobility\""
par VANET.node[5].appl typename "\"biblioteca_veins.CarApp\""
par VANET.node[5].appl headerLength 80bit
attr unit bit
par VANET.node[5].appl sendBeacons true
par VANET.node[5].appl beaconLengthBits 256bit
attr unit bit
par VANET.node[5].appl beaconUserPriority 7
par VANET.node[5].appl beaconInterval 1s
attr unit s
par VANET.node[5].appl dataLengthBits 1024bit
attr unit bit
par VANET.node[5].appl dataOnSch false
par VANET.node[5].appl dataUserPriority 7
par VANET.node[5].appl avoidBeaconSynchronization true
par VANET.node[5].appl sendWSA false
par VANET.node[5].appl wsaLengthBits 250bit
attr unit bit
par VANET.node[5].appl wsaInterval 1s
attr unit s
scalar VANET.node[5].appl generatedWSMs 1
scalar VANET.node[5].appl receivedWSMs 26
scalar VANET.node[5].appl generatedBSMs 129
scalar VANET.node[5].appl receivedBSMs 1731
scalar VANET.node[5].appl generatedWSAs 0
scalar VANET.node[5].appl receivedWSAs 0
par VANET.node[5].nic.phy80211p typename "\"org.car2x.veins.modules.phy.PhyLayer80211p\""
par VANET.node[5].nic.phy80211p recordStats false
par VANET.node[5].nic.phy80211p usePropagationDelay true
par VANET.node[5].nic.phy80211p noiseFloor -98dBm
attr unit dBm
par VANET.node[5].nic.phy80211p useNoiseFloor true
par VANET.node[5].nic.phy80211p antenna "<Antenna type=\"SampledAntenna1D\" id=\"monopole\">...</Antenna> at /home/andreia/Projeto/workspace/biblioteca_veins/simulations//antenna.xml:35"
par VANET.node[5].nic.phy80211p antennaOffsetX 0m
attr unit m
par VANET.node[5].nic.phy80211p antennaOffsetY 0m
attr unit m
par VANET.node[5].nic.phy80211p antennaOffsetZ 1.895m
attr unit m
par VANET.node[5].nic.phy80211p antennaOffsetYaw 0rad
attr unit rad
par VANET.node[5].nic.phy80211p analogueModels "<root>...</root> at /home/andreia/Projeto/workspace/biblioteca_veins/simulations//config.xml:34"
par VANET.node[5].nic.phy80211p decider "<root>...</root> at /home/andreia/Projeto/workspace/biblioteca_veins/simulations//config.xml:34"
par VANET.node[5].nic.phy80211p minPowerLevel -110dBm
attr unit dBm
par VANET.node[5].nic.phy80211p timeRXToTX 0s
attr unit s
par VANET.node[5].nic.phy80211p timeRXToSleep 0s
attr unit s
par VANET.node[5].nic.phy80211p timeTXToRX 0s
attr unit s
par VANET.node[5].nic.phy80211p timeTXToSleep 0s
attr unit s
par VANET.node[5].nic.phy80211p timeSleepToRX 0s
attr unit s
par VANET.node[5].nic.phy80211p timeSleepToTX 0s
attr unit s
par VANET.node[5].nic.phy80211p initialRadioState 0
par VANET.node[5].nic.phy80211p radioMinAtt 1
par VANET.node[5].nic.phy80211p radioMaxAtt 0
par VANET.node[5].nic.phy80211p nbRadioChannels 1
par VANET.node[5].nic.phy80211p initialRadioChannel 0
par VANET.node[5].nic.phy80211p ccaThreshold -65dBm
attr unit dBm
par VANET.node[5].nic.phy80211p collectCollisionStatistics false
par VANET.node[5].nic.phy80211p allowTxDuringRx false
scalar VANET.node[5].nic.phy80211p busyTime 0.0014807748592739
par VANET.node[5].nic.mac1609_4 typename "\"org.car2x.veins.modules.mac.ieee80211p.Mac1609_4\""
par VANET.node[5].nic.mac1609_4 notAffectedByHostState false
par VANET.node[5].nic.mac1609_4 headerLength 0bit
attr unit bit
par VANET.node[5].nic.mac1609_4 address "\"auto\""
par VANET.node[5].nic.mac1609_4 useServiceChannel false
par VANET.node[5].nic.mac1609_4 serviceChannel 1
par VANET.node[5].nic.mac1609_4 bitrate 6000000bps
attr unit bps
par VANET.node[5].nic.mac1609_4 syncOffset 0.0003s
attr unit s
par VANET.node[5].nic.mac1609_4 txPower 20mW
attr unit mW
par VANET.node[5].nic.mac1609_4 queueSize 0
par VANET.node[5].nic.mac1609_4 dot11RTSThreshold 12000bit
attr unit bit
par VANET.node[5].nic.mac1609_4 dot11ShortRetryLimit 7
par VANET.node[5].nic.mac1609_4 dot11LongRetryLimit 4
par VANET.node[5].nic.mac1609_4 ackLength 112bit
attr unit bit
par VANET.node[5].nic.mac1609_4 useAcks false
par VANET.node[5].nic.mac1609_4 frameErrorRate 0
par VANET.node[5].nic.mac1609_4 ackErrorRate 0
scalar VANET.node[5].nic.mac1609_4 ReceivedUnicastPackets 0
scalar VANET.node[5].nic.mac1609_4 ReceivedBroadcasts 1757
scalar VANET.node[5].nic.mac1609_4 SentPackets 130
scalar VANET.node[5].nic.mac1609_4 SentAcknowledgements 0
scalar VANET.node[5].nic.mac1609_4 RetriesExceeded 0
scalar VANET.node[5].nic.mac1609_4 SNIRLostPackets 41
scalar VANET.node[5].nic.mac1609_4 RXTXLostPackets 0
scalar VANET.node[5].nic.mac1609_4 TotalLostPackets 41
scalar VANET.node[5].nic.mac1609_4 DroppedPacketsInMac 0
scalar VANET.node[5].nic.mac1609_4 TooLittleTime 0
scalar VANET.node[5].nic.mac1609_4 TimesIntoBackoff 130
scalar VANET.node[5].nic.mac1609_4 SlotsBackoff 195
scalar VANET.node[5].nic.mac1609_4 NumInternalContention 0
scalar VANET.node[5].nic.mac1609_4 totalBusyTime 0.204226
scalar VANET.node[5].nic.mac1609_4 retriesExceeded:count 0
attr recordingmode count
attr source org_car2x_veins_modules_mac_sigRetriesExceeded
scalar VANET.node[5].nic.mac1609_4 sentAcks:count 0
attr recordingmode count
attr source org_car2x_veins_modules_mac_sigSentAck
scalar VANET.node[5].nic.mac1609_4 sentPackets:count 130
attr recordingmode count
attr source org_car2x_veins_modules_mac_sigSentPacket
scalar VANET.node[5].nic.mac1609_4 collisions:count 0
attr recordingmode count
attr source org_car2x_veins_modules_mac_sigCollision
scalar VANET.node[5].nic.mac1609_4 channelBusy:timeavg 0.0015879018231226
attr recordingmode timeavg
attr source org_car2x_veins_modules_mac_sigChannelBusy
par VANET.node[5].nic typename "\"org.car2x.veins.modules.nic.Nic80211p\""
par VANET.node[5].nic connectionManagerName "\"connectionManager\""
par VANET.node[5].veinsmobility typename "\"org.car2x.veins.modules.mobility.traci.TraCIMobility\""
par VANET.node[5].veinsmobility notAffectedByHostState true
par VANET.node[5].veinsmobility x 0
par VANET.node[5].veinsmobility y 0
par VANET.node[5].veinsmobility z 0
par VANET.node[5].veinsmobility xOrientation 1
par VANET.node[5].veinsmobility yOrientation 0
par VANET.node[5].veinsmobility zOrientation 0
par VANET.node[5].veinsmobility hostPositionOffset 0m
attr unit m
par VANET.node[5].veinsmobility setHostSpeed false
par VANET.node[5].veinsmobility accidentCount 0
par VANET.node[5].veinsmobility accidentStart 43.7554s
attr unit s
par VANET.node[5].veinsmobility accidentDuration "uniform(30s, 60s)"
attr unit s
par VANET.node[5].veinsmobility accidentInterval "uniform(30s, 60s)"
attr unit s
scalar VANET.node[5].veinsmobility startTime 16
scalar VANET.node[5].veinsmobility totalTime 128
scalar VANET.node[5].veinsmobility stopTime 144.61374489664
scalar VANET.node[5].veinsmobility minSpeed 0
scalar VANET.node[5].veinsmobility maxSpeed 13.998410794288
scalar VANET.node[5].veinsmobility totalDistance 1103.4342328046
scalar VANET.node[5].veinsmobility totalCO2Emission 271.56581794369
par VANET.node[5] typename "\"org.car2x.veins.nodes.Car\""
par VANET.node[5] applType "\"biblioteca_veins.CarApp\""
par VANET.node[5] nicType "\"Nic80211p\""
par VANET.node[5] veinsmobilityType "\"org.car2x.veins.modules.mobility.traci.TraCIMobility\""
par VANET.node[6].appl typename "\"biblioteca_veins.CarApp\""
par VANET.node[6].appl headerLength 80bit
attr unit bit
par VANET.node[6].appl sendBeacons true
par VANET.node[6].appl beaconLengthBits 256bit
attr unit bit
par VANET.node[6].appl beaconUserPriority 7
par VANET.node[6].appl beaconInterval 1s
attr unit s
par VANET.node[6].appl dataLengthBits 1024bit
attr unit bit
par VANET.node[6].appl dataOnSch false
par VANET.node[6].appl dataUserPriority 7
par VANET.node[6].appl avoidBeaconSynchronization true
par VANET.node[6].appl sendWSA false
par VANET.node[6].appl wsaLengthBits 250bit
attr unit bit
par VANET.node[6].appl wsaInterval 1s
attr unit s
scalar VANET.node[6].appl generatedWSMs 1
scalar VANET.node[6].appl receivedWSMs 27
scalar VANET.node[6].appl generatedBSMs 126
scalar VANET.node[6].appl receivedBSMs 1745
scalar VANET.node[6].appl generatedWSAs 0
scalar VANET.node[6].appl receivedWSAs 0
par VANET.node[6].nic.phy80211p typename "\"org.car2x.veins.modules.phy.PhyLayer80211p\""
par VANET.node[6].nic.phy80211p recordStats false
par VANET.node[6].nic.phy80211p usePropagationDelay true
par VANET.node[6].nic.phy80211p noiseFloor -98dBm
attr unit dBm
par VANET.node[6].nic.phy80211p useNoiseFloor true
par VANET.node[6].nic.phy80211p antenna "<Antenna type=\"SampledAntenna1D\" id=\"monopole\">...</Antenna> at /home/andreia/Projeto/workspace/biblioteca_veins/simulations//antenna.xml:35"
par VANET.node[6].nic.phy80211p antennaOffsetX 0m
attr unit m
par VANET.node[6].nic.phy80211p antennaOffsetY 0m
attr unit m
par VANET.node[6].nic.phy80211p antennaOffsetZ 1.895m
attr unit m
par VANET.node[6].nic.phy80211p antennaOffsetYaw 0rad
attr unit rad
par VANET.node[6].nic.phy80211p analogueModels "<root>...</root> at /home/andreia/Projeto/workspace/biblioteca_veins/simulations//config.xml:34"
par VANET.node[6].nic.phy80211p decider "<root>...</root> at /home/andreia/Projeto/workspace/biblioteca_veins/simulations//config.xml:34"
par VANET.node[6].nic.phy80211p minPowerLevel -110dBm
attr unit dBm
par VANET.node[6].nic.phy80211p timeRXToTX 0s
attr unit s
par VANET.node[6].nic.phy80211p timeRXToSleep 0s
attr unit s
par VANET.node[6].nic.phy80211p timeTXToRX 0s
attr unit s
par VANET.node[6].nic.phy80211p timeTXToSleep 0s
attr unit s
par VANET.node[6].nic.phy80211p timeSleepToRX 0s
attr unit s
par VANET.node[6].nic.phy80211p timeSleepToTX 0s
attr unit s
par VANET.node[6].nic.phy80211p initialRadioState 0
par VANET.node[6].nic.phy80211p radioMinAtt 1
par VANET.node[6].nic.phy80211p radioMaxAtt 0
par VANET.node[6].nic.phy80211p nbRadioChannels 1
par VANET.node[6].nic.phy80211p initialRadioChannel 0
par VANET.node[6].nic.phy80211p ccaThreshold -65dBm
attr unit dBm
par VANET.node[6].nic.phy80211p collectCollisionStatistics false
par VANET.node[6].nic.phy80211p allowTxDuringRx false
scalar VANET.node[6].nic.phy80211p busyTime 0.0015318705780035
par VANET.node[6].nic.mac1609_4 typename "\"org.car2x.veins.modules.mac.ieee80211p.Mac1609_4\""
par VANET.node[6].nic.mac1609_4 notAffectedByHostState false
par VANET.node[6].nic.mac1609_4 headerLength 0bit
attr unit bit
par VANET.node[6].nic.mac1609_4 address "\"auto\""
par VANET.node[6].nic.mac1609_4 useServiceChannel false
par VANET.node[6].nic.mac1609_4 serviceChannel 1
par VANET.node[6].nic.mac1609_4 bitrate 6000000bps
attr unit bps
par VANET.node[6].nic.mac1609_4 syncOffset 0.0003s
attr unit s
par VANET.node[6].nic.mac1609_4 txPower 20mW
attr unit mW
par VANET.node[6].nic.mac1609_4 queueSize 0
par VANET.node[6].nic.mac1609_4 dot11RTSThreshold 12000bit
attr unit bit
par VANET.node[6].nic.mac1609_4 dot11ShortRetryLimit 7
par VANET.node[6].nic.mac1609_4 dot11LongRetryLimit 4
par VANET.node[6].nic.mac1609_4 ackLength 112bit
attr unit bit
par VANET.node[6].nic.mac1609_4 useAcks false
par VANET.node[6].nic.mac1609_4 frameErrorRate 0
par VANET.node[6].nic.mac1609_4 ackErrorRate 0
scalar VANET.node[6].nic.mac1609_4 ReceivedUnicastPackets 0
scalar VANET.node[6].nic.mac1609_4 ReceivedBroadcasts 1772
scalar VANET.node[6].nic.mac1609_4 SentPackets 127
scalar VANET.node[6].nic.mac1609_4 SentAcknowledgements 0
scalar VANET.node[6].nic.mac1609_4 RetriesExceeded 0
scalar VANET.node[6].nic.mac1609_4 SNIRLostPackets 45
scalar VANET.node[6].nic.mac1609_4 RXTXLostPackets 0
scalar VANET.node[6].nic.mac1609_4 TotalLostPackets 45
scalar VANET.node[6].nic.mac1609_4 DroppedPacketsInMac 0
scalar VANET.node[6].nic.mac1609_4 TooLittleTime 0
scalar VANET.node[6].nic.mac1609_4 TimesIntoBackoff 127
scalar VANET.node[6].nic.mac1609_4 SlotsBackoff 193
scalar VANET.node[6].nic.mac1609_4 NumInternalContention 0
scalar VANET.node[6].nic.mac1609_4 totalBusyTime 0.205887
scalar VANET.node[6].nic.mac1609_4 retriesExceeded:count 0
attr recordingmode count
attr source org_car2x_veins_modules_mac_sigRetriesExceeded
scalar VANET.node[6].nic.mac1609_4 sentAcks:count 0
attr recordingmode count
attr source org_car2x_veins_modules_mac_sigSentAck
scalar VANET.node[6].nic.mac1609_4 sentPackets:count 127
attr recordingmode count
attr source org_car2x_veins_modules_mac_sigSentPacket
scalar VANET.node[6].nic.mac1609_4 collisions:count 0
attr recordingmode count
attr source org_car2x_veins_modules_mac_sigCollision
scalar VANET.node[6].nic.mac1609_4 channelBusy:timeavg 0.00163904833957
attr recordingmode timeavg
attr source org_car2x_veins_modules_mac_sigChannelBusy
par VANET.node[6].nic typename "\"org.car2x.veins.modules.nic.Nic80211p\""
par VANET.node[6].nic connectionManagerName "\"connectionManager\""
par VANET.node[6].veinsmobility typename "\"org.car2x.veins.modules.mobility.traci.TraCIMobility\""
par VANET.node[6].veinsmobility notAffectedByHostState true
par VANET.node[6].veinsmobility x 0
par VANET.node[6].veinsmobility y 0
par VANET.node[6].veinsmobility z 0
par VANET.node[6].veinsmobility xOrientation 1
par VANET.node[6].veinsmobility yOrientation 0
par VANET.node[6].veinsmobility zOrientation 0
par VANET.node[6].veinsmobility hostPositionOffset 0m
attr unit m
par VANET.node[6].veinsmobility setHostSpeed false
par VANET.node[6].veinsmobility accidentCount 0
par VANET.node[6].veinsmobility accidentStart 30.7957s
attr unit s
par VANET.node[6].veinsmobility accidentDuration "uniform(30s, 60s)"
attr unit s
par VANET.node[6].veinsmobility accidentInterval "uniform(30s, 60s)"
attr unit s
scalar VANET.node[6].veinsmobility startTime 19
scalar VANET.node[6].veinsmobility totalTime 125
scalar VANET.node[6].veinsmobility stopTime 144.61374489664
scalar VANET.node[6].veinsmobility minSpeed 0
scalar VANET.node[6].veinsmobility maxSpeed 13.998108282317
scalar VANET.node[6].veinsmobility totalDistance 1085.0814128276
scalar VANET.node[6].veinsmobility totalCO2Emission 266.80340950221
par VANET.node[6] typename "\"org.car2x.veins.nodes.Car\""
par VANET.node[6] applType "\"biblioteca_veins.CarApp\""
par VANET.node[6] nicType "\"Nic80211p\""
par VANET.node[6] veinsmobilityType "\"org.car2x.veins.modules.mobility.traci.TraCIMobility\""
par VANET.node[7].appl typename "\"biblioteca_veins.CarApp\""
par VANET.node[7].appl headerLength 80bit
attr unit bit
par VANET.node[7].appl sendBeacons true
par VANET.node[7].appl beaconLengthBits 256bit
attr unit bit
par VANET.node[7].appl beaconUserPriority 7
par VANET.node[7].appl beaconInterval 1s
attr unit s
par VANET.node[7].appl dataLengthBits 1024bit
attr unit bit
par VANET.node[7].appl dataOnSch false
par VANET.node[7].appl dataUserPriority 7
par VANET.node[7].appl avoidBeaconSynchronization true
par VANET.node[7].appl sendWSA false
par VANET.node[7].appl wsaLengthBits 250bit
attr unit bit
par VANET.node[7].appl wsaInterval 1s
attr unit s
scalar VANET.node[7].appl generatedWSMs 1
scalar VANET.node[7].appl receivedWSMs 32
scalar VANET.node[7].appl generatedBSMs 123
scalar VANET.node[7].appl receivedBSMs 1842
scalar VANET.node[7].appl generatedWSAs 0
scalar VANET.node[7].appl receivedWSAs 0
par VANET.node[7].nic.phy80211p typename "\"org.car2x.veins.modules.phy.PhyLayer80211p\""
par VANET.node[7].nic.phy80211p recordStats false
par VANET.node[7].nic.phy80211p usePropagationDelay true
par VANET.node[7].nic.phy80211p noiseFloor -98dBm
attr unit dBm
par VANET.node[7].nic.phy80211p useNoiseFloor true
par VANET.node[7].nic.phy80211p antenna "<Antenna type=\"SampledAntenna1D\" id=\"monopole\">...</Antenna> at /home/andreia/Projeto/workspace/biblioteca_veins/simulations//antenna.xml:35"
par VANET.node[7].nic.phy80211p antennaOffsetX 0m
attr unit m
par VANET.node[7].nic.phy80211p antennaOffsetY 0m
attr unit m
par VANET.node[7].nic.phy80211p antennaOffsetZ 1.895m
attr unit m
par VANET.node[7].nic.phy80211p antennaOffsetYaw 0rad
attr unit rad
par VANET.node[7].nic.phy80211p analogueModels "<root>...</root> at /home/andreia/Projeto/workspace/biblioteca_veins/simulations//config.xml:34"
par VANET.node[7].nic.phy80211p decider "<root>...</root> at /home/andreia/Projeto/workspace/biblioteca_veins/simulations//config.xml:34"
par VANET.node[7].nic.phy80211p minPowerLevel -110dBm
attr unit dBm
par VANET.node[7].nic.phy80211p timeRXToTX 0s
attr unit s
par VANET.node[7].nic.phy80211p timeRXToSleep 0s
attr unit s
par VANET.node[7].nic.phy80211p timeTXToRX 0s
attr unit s
par VANET.node[7].nic.phy80211p timeTXToSleep 0s
attr unit s
par VANET.node[7].nic.phy80211p timeSleepToRX 0s
attr unit s
par VANET.node[7].nic.phy80211p timeSleepToTX 0s
attr unit s
par VANET.node[7].nic.phy80211p initialRadioState 0
par VANET.node[7].nic.phy80211p radioMinAtt 1
par VANET.node[7].nic.phy80211p radioMaxAtt 0
par VANET.node[7].nic.phy80211p nbRadioChannels 1
par VANET.node[7].nic.phy80211p initialRadioChannel 0
par VANET.node[7].nic.phy80211p ccaThreshold -65dBm
attr unit dBm
par VANET.node[7].nic.phy80211p collectCollisionStatistics false
par VANET.node[7].nic.phy80211p allowTxDuringRx false
scalar VANET.node[7].nic.phy80211p busyTime 0.0016610862034407
par VANET.node[7].nic.mac1609_4 typename "\"org.car2x.veins.modules.mac.ieee80211p.Mac1609_4\""
par VANET.node[7].nic.mac1609_4 notAffectedByHostState false
par VANET.node[7].nic.mac1609_4 headerLength 0bit
attr unit bit
par VANET.node[7].nic.mac1609_4 address "\"auto\""
par VANET.node[7].nic.mac1609_4 useServiceChannel false
par VANET.node[7].nic.mac1609_4 serviceChannel 1
par VANET.node[7].nic.mac1609_4 bitrate 6000000bps
attr unit bps
par VANET.node[7].nic.mac1609_4 syncOffset 0.0003s
attr unit s
par VANET.node[7].nic.mac1609_4 txPower 20mW
attr unit mW
par VANET.node[7].nic.mac1609_4 queueSize 0
par VANET.node[7].nic.mac1609_4 dot11RTSThreshold 12000bit
attr unit bit
par VANET.node[7].nic.mac1609_4 dot11ShortRetryLimit 7
par VANET.node[7].nic.mac1609_4 dot11LongRetryLimit 4
par VANET.node[7].nic.mac1609_4 ackLength 112bit
attr unit bit
par VANET.node[7].nic.mac1609_4 useAcks false
par VANET.node[7].nic.mac1609_4 frameErrorRate 0
par VANET.node[7].nic.mac1609_4 ackErrorRate 0
scalar VANET.node[7].nic.mac1609_4 ReceivedUnicastPackets 0
scalar VANET.node[7].nic.mac1609_4 ReceivedBroadcasts 1874
scalar VANET.node[7].nic.mac1609_4 SentPackets 124
scalar VANET.node[7].nic.mac1609_4 SentAcknowledgements 0
scalar VANET.node[7].nic.mac1609_4 RetriesExceeded 0
scalar VANET.node[7].nic.mac1609_4 SNIRLostPackets 45
scalar VANET.node[7].nic.mac1609_4 RXTXLostPackets 0
scalar VANET.node[7].nic.mac1609_4 TotalLostPackets 45
scalar VANET.node[7].nic.mac1609_4 DroppedPacketsInMac 0
scalar VANET.node[7].nic.mac1609_4 TooLittleTime 0
scalar VANET.node[7].nic.mac1609_4 TimesIntoBackoff 124
scalar VANET.node[7].nic.mac1609_4 SlotsBackoff 170
scalar VANET.node[7].nic.mac1609_4 NumInternalContention 0
scalar VANET.node[7].nic.mac1609_4 totalBusyTime 0.21682
scalar VANET.node[7].nic.mac1609_4 retriesExceeded:count 0
attr recordingmode count
attr source org_car2x_veins_modules_mac_sigRetriesExceeded
scalar VANET.node[7].nic.mac1609_4 sentAcks:count 0
attr recordingmode count
attr source org_car2x_veins_modules_mac_sigSentAck
scalar VANET.node[7].nic.mac1609_4 sentPackets:count 124
attr recordingmode count
attr source org_car2x_veins_modules_mac_sigSentPacket
scalar VANET.node[7].nic.mac1609_4 collisions:count 0
attr recordingmode count
attr source org_car2x_veins_modules_mac_sigCollision
scalar VANET.node[7].nic.mac1609_4 channelBusy:timeavg 0.0017683172484682
attr recordingmode timeavg
attr source org_car2x_veins_modules_mac_sigChannelBusy
par VANET.node[7].nic typename "\"org.car2x.veins.modules.nic.Nic80211p\""
par VANET.node[7].nic connectionManagerName "\"connectionManager\""
par VANET.node[7].veinsmobility typename "\"org.car2x.veins.modules.mobility.traci.TraCIMobility\""
par VANET.node[7].veinsmobility notAffectedByHostState true
par VANET.node[7].veinsmobility x 0
par VANET.node[7].veinsmobility y 0
par VANET.node[7].veinsmobility z 0
par VANET.node[7].veinsmobility xOrientation 1
par VANET.node[7].veinsmobility yOrientation 0
par VANET.node[7].veinsmobility zOrientation 0
par VANET.node[7].veinsmobility hostPositionOffset 0m
attr unit m
par VANET.node[7].veinsmobility setHostSpeed false
par VANET.node[7].veinsmobility accidentCount 0
par VANET.node[7].veinsmobility accidentStart 32.9248s
attr unit s
par VANET.node[7].veinsmobility accidentDuration "uniform(30s, 60s)"
attr unit s
par VANET.node[7].veinsmobility accidentInterval "uniform(30s, 60s)"
attr unit s
scalar VANET.node[7].veinsmobility startTime 22
scalar VANET.node[7].veinsmobility totalTime 122
scalar VANET.node[7].veinsmobility stopTime 144.61374489664
scalar VANET.node[7].veinsmobility minSpeed 0
scalar VANET.node[7].veinsmobility maxSpeed 13.988286828815
scalar VANET.node[7].veinsmobility totalDistance 1063.4880733143
scalar VANET.node[7].veinsmobility totalCO2Emission 254.50182319523
par VANET.node[7] typename "\"org.car2x.veins.nodes.Car\""
par VANET.node[7] applType "\"biblioteca_veins.CarApp\""
par VANET.node[7] nicType "\"Nic80211p\""
par VANET.node[7] veinsmobilityType "\"org.car2x.veins.modules.mobility.traci.TraCIMobility\""
par VANET.node[8].appl typename "\"biblioteca_veins.CarApp\""
par VANET.node[8].appl headerLength 80bit
attr unit bit
par VANET.node[8].appl sendBeacons true
par VANET.node[8].appl beaconLengthBits 256bit
attr unit bit
par VANET.node[8].appl beaconUserPriority 7
par VANET.node[8].appl beaconInterval 1s
attr unit s
par VANET.node[8].appl dataLengthBits 1024bit
attr unit bit
par VANET.node[8].appl dataOnSch false
par VANET.node[8].appl dataUserPriority 7
par VANET.node[8].appl avoidBeaconSynchronization true
par VANET.node[8].appl sendWSA false
par VANET.node[8].appl wsaLengthBits 250bit
attr unit bit
par VANET.node[8].appl wsaInterval 1s
attr unit s
scalar VANET.node[8].appl generatedWSMs 1
scalar VANET.node[8].appl receivedWSMs 33
scalar VANET.node[8].appl generatedBSMs 120
scalar VANET.node[8].appl receivedBSMs 1846
scalar VANET.node[8].appl generatedWSAs 0
scalar VANET.node[8].appl receivedWSAs 0
par VANET.node[8].nic.phy80211p typename "\"org.car2x.veins.modules.phy.PhyLayer80211p\""
par VANET.node[8].nic.phy80211p recordStats false
par VANET.node[8].nic.phy80211p usePropagationDelay true
par VANET.node[8].nic.phy80211p noiseFloor -98dBm
attr unit dBm
par VANET.node[8].nic.phy80211p useNoiseFloor true
par VANET.node[8].nic.phy80211p antenna "<Antenna type=\"SampledAntenna1D\" id=\"monopole\">...</Antenna> at /home/andreia/Projeto/workspace/biblioteca_veins/simulations//antenna.xml:35"
par VANET.node[8].nic.phy80211p antennaOffsetX 0m
attr unit m
par VANET.node[8].nic.phy80211p antennaOffsetY 0m
attr unit m
par VANET.node[8].nic.phy80211p antennaOffsetZ 1.895m
attr unit m
par VANET.node[8].nic.phy80211p antennaOffsetYaw 0rad
attr unit rad
par VANET.node[8].nic.phy80211p analogueModels "<root>...</root> at /home/andreia/Projeto/workspace/biblioteca_veins/simulations//config.xml:34"
par VANET.node[8].nic.phy80211p decider "<root>...</root> at /home/andreia/Projeto/workspace/biblioteca_veins/simulations//config.xml:34"
par VANET.node[8].nic.phy80211p minPowerLevel -110dBm
attr unit dBm
par VANET.node[8].nic.phy80211p timeRXToTX 0s
attr unit s
par VANET.node[8].nic.phy80211p timeRXToSleep 0s
attr unit s
par VANET.node[8].nic.phy80211p timeTXToRX 0s
attr unit s
par VANET.node[8].nic.phy80211p timeTXToSleep 0s
attr unit s
par VANET.node[8].nic.phy80211p timeSleepToRX 0s
attr unit s
par VANET.node[8].nic.phy80211p timeSleepToTX 0s
attr unit s
par VANET.node[8].nic.phy80211p initialRadioState 0
par VANET.node[8].nic.phy80211p radioMinAtt 1
par VANET.node[8].nic.phy80211p radioMaxAtt 0
par VANET.node[8].nic.phy80211p nbRadioChannels 1
par VANET.node[8].nic.phy80211p initialRadioChannel 0
par VANET.node[8].nic.phy80211p ccaThreshold -65dBm
attr unit dBm
par VANET.node[8].nic.phy80211p collectCollisionStatistics false
par VANET.node[8].nic.phy80211p allowTxDuringRx false
scalar VANET.node[8].nic.phy80211p busyTime 0.0017144517979703
par VANET.node[8].nic.mac1609_4 typename "\"org.car2x.veins.modules.mac.ieee80211p.Mac1609_4\""
par VANET.node[8].nic.mac1609_4 notAffectedByHostState false
par VANET.node[8].nic.mac1609_4 headerLength 0bit
attr unit bit
par VANET.node[8].nic.mac1609_4 address "\"auto\""
par VANET.node[8].nic.mac1609_4 useServiceChannel false
par VANET.node[8].nic.mac1609_4 serviceChannel 1
par VANET.node[8].nic.mac1609_4 bitrate 6000000bps
attr unit bps
par VANET.node[8].nic.mac1609_4 syncOffset 0.0003s
attr unit s
par VANET.node[8].nic.mac1609_4 txPower 20mW
attr unit mW
par VANET.node[8].nic.mac1609_4 queueSize 0
par VANET.node[8].nic.mac1609_4 dot11RTSThreshold 12000bit
attr unit bit
par VANET.node[8].nic.mac1609_4 dot11ShortRetryLimit 7
par VANET.node[8].nic.mac1609_4 dot11LongRetryLimit 4
par VANET.node[8].nic.mac1609_4 ackLength 112bit
attr unit bit
par VANET.node[8].nic.mac1609_4 useAcks false
par VANET.node[8].nic.mac1609_4 frameErrorRate 0
par VANET.node[8].nic.mac1609_4 ackErrorRate 0
scalar VANET.node[8].nic.mac1609_4 ReceivedUnicastPackets 0
scalar VANET.node[8].nic.mac1609_4 ReceivedBroadcasts 1879
scalar VANET.node[8].nic.mac1609_4 SentPackets 121
scalar VANET.node[8].nic.mac1609_4 SentAcknowledgements 0
scalar VANET.node[8].nic.mac1609_4 RetriesExceeded 0
scalar VANET.node[8].nic.mac1609_4 SNIRLostPackets 51
scalar VANET.node[8].nic.mac1609_4 RXTXLostPackets 0
scalar VANET.node[8].nic.mac1609_4 TotalLostPackets 51
scalar VANET.node[8].nic.mac1609_4 DroppedPacketsInMac 0
scalar VANET.node[8].nic.mac1609_4 TooLittleTime 0
scalar VANET.node[8].nic.mac1609_4 TimesIntoBackoff 121
scalar VANET.node[8].nic.mac1609_4 SlotsBackoff 211
scalar VANET.node[8].nic.mac1609_4 NumInternalContention 0
scalar VANET.node[8].nic.mac1609_4 totalBusyTime 0.217905
scalar VANET.node[8].nic.mac1609_4 retriesExceeded:count 0
attr recordingmode count
attr source org_car2x_veins_modules_mac_sigRetriesExceeded
scalar VANET.node[8].nic.mac1609_4 sentAcks:count 0
attr recordingmode count
attr source org_car2x_veins_modules_mac_sigSentAck
scalar VANET.node[8].nic.mac1609_4 sentPackets:count 121
attr recordingmode count
attr source org_car2x_veins_modules_mac_sigSentPacket
scalar VANET.node[8].nic.mac1609_4 collisions:count 0
attr recordingmode count
attr source org_car2x_veins_modules_mac_sigCollision
scalar VANET.node[8].nic.mac1609_4 channelBusy:timeavg 0.001821738799235
attr recordingmode timeavg
attr source org_car2x_veins_modules_mac_sigChannelBusy
par VANET.node[8].nic typename "\"org.car2x.veins.modules.nic.Nic80211p\""
par VANET.node[8].nic connectionManagerName "\"connectionManager\""
par VANET.node[8].veinsmobility typename "\"org.car2x.veins.modules.mobility.traci.TraCIMobility\""
par VANET.node[8].veinsmobility notAffectedByHostState true
par VANET.node[8].veinsmobility x 0
par VANET.node[8].veinsmobility y 0
par VANET.node[8].veinsmobility z 0
par VANET.node[8].veinsmobility xOrientation 1
par VANET.node[8].veinsmobility yOrientation 0
par VANET.node[8].veinsmobility zOrientation 0
par VANET.node[8].veinsmobility hostPositionOffset 0m
attr unit m
par VANET.node[8].veinsmobility setHostSpeed false
par VANET.node[8].veinsmobility accidentCount 0
par VANET.node[8].veinsmobility accidentStart 51.5817s
attr unit s
par VANET.node[8].veinsmobility accidentDuration "uniform(30s, 60s)"
attr unit s
par VANET.node[8].veinsmobility accidentInterval "uniform(30s, 60s)"
attr unit s
scalar VANET.node[8].veinsmobility startTime 25
scalar VANET.node[8].veinsmobility totalTime 119
scalar VANET.node[8].veinsmobility stopTime 144.61374489664
scalar VANET.node[8].veinsmobility minSpeed 0
scalar VANET.node[8].veinsmobility maxSpeed 13.99516360783
scalar VANET.node[8].veinsmobility totalDistance 1040.4446385363
scalar VANET.node[8].veinsmobility totalCO2Emission 254.75882081687
par VANET.node[8] typename "\"org.car2x.veins.nodes.Car\""
par VANET.node[8] applType "\"biblioteca_veins.CarApp\""
par VANET.node[8] nicType "\"Nic80211p\""
par VANET.node[8] veinsmobilityType "\"org.car2x.veins.modules.mobility.traci.TraCIMobility\""
par VANET.node[9].appl typename "\"biblioteca_veins.CarApp\""
par VANET.node[9].appl headerLength 80bit
attr unit bit
par VANET.node[9].appl sendBeacons true
par VANET.node[9].appl beaconLengthBits 256bit
attr unit bit
par VANET.node[9].appl beaconUserPriority 7
par VANET.node[9].appl beaconInterval 1s
attr unit s
par VANET.node[9].appl dataLengthBits 1024bit
attr unit bit
par VANET.node[9].appl dataOnSch false
par VANET.node[9].appl dataUserPriority 7
par VANET.node[9].appl avoidBeaconSynchronization true
par VANET.node[9].appl sendWSA false
par VANET.node[9].appl wsaLengthBits 250bit
attr unit bit
par VANET.node[9].appl wsaInterval 1s
attr unit s
scalar VANET.node[9].appl generatedWSMs 1
scalar VANET.node[9].appl receivedWSMs 34
scalar VANET.node[9].appl generatedBSMs 117
scalar VANET.node[9].appl receivedBSMs 1856
scalar VANET.node[9].appl generatedWSAs 0
scalar VANET.node[9].appl receivedWSAs 0
par VANET.node[9].nic.phy80211p typename "\"org.car2x.veins.modules.phy.PhyLayer80211p\""
par VANET.node[9].nic.phy80211p recordStats false
par VANET.node[9].nic.phy80211p usePropagationDelay true
par VANET.node[9].nic.phy80211p noiseFloor -98dBm
attr unit dBm
par VANET.node[9].nic.phy80211p useNoiseFloor true
par VANET.node[9].nic.phy80211p antenna "<Antenna type=\"SampledAntenna1D\" id=\"monopole\">...</Antenna> at /home/andreia/Projeto/workspace/biblioteca_veins/simulations//antenna.xml:35"
par VANET.node[9].nic.phy80211p antennaOffsetX 0m
attr unit m
par VANET.node[9].nic.phy80211p antennaOffsetY 0m
attr unit m
par VANET.node[9].nic.phy80211p antennaOffsetZ 1.895m
attr unit m
par VANET.node[9].nic.phy80211p antennaOffsetYaw 0rad
attr unit rad
par VANET.node[9].nic.phy80211p analogueModels "<root>...</root> at /home/andreia/Projeto/workspace/biblioteca_veins/simulations//config.xml:34"
par VANET.node[9].nic.phy80211p decider "<root>...</root> at /home/andreia/Projeto/workspace/biblioteca_veins/simulations//config.xml:34"
par VANET.node[9].nic.phy80211p minPowerLevel -110dBm
attr unit dBm
par VANET.node[9].nic.phy80211p timeRXToTX 0s
attr unit s
par VANET.node[9].nic.phy80211p timeRXToSleep 0s
attr unit s
par VANET.node[9].nic.phy80211p timeTXToRX 0s
attr unit s
par VANET.node[9].nic.phy80211p timeTXToSleep 0s
attr unit s
par VANET.node[9].nic.phy80211p timeSleepToRX 0s
attr unit s
par VANET.node[9].nic.phy80211p timeSleepToTX 0s
attr unit s
par VANET.node[9].nic.phy80211p initialRadioState 0
par VANET.node[9].nic.phy80211p radioMinAtt 1
par VANET.node[9].nic.phy80211p radioMaxAtt 0
par VANET.node[9].nic.phy80211p nbRadioChannels 1
par VANET.node[9].nic.phy80211p initialRadioChannel 0
par VANET.node[9].nic.phy80211p ccaThreshold -65dBm
attr unit dBm
par VANET.node[9].nic.phy80211p collectCollisionStatistics false
par VANET.node[9].nic.phy80211p allowTxDuringRx false
scalar VANET.node[9].nic.phy80211p busyTime 0.0017594495415773
par VANET.node[9].nic.mac1609_4 typename "\"org.car2x.veins.modules.mac.ieee80211p.Mac1609_4\""
par VANET.node[9].nic.mac1609_4 notAffectedByHostState false
par VANET.node[9].nic.mac1609_4 headerLength 0bit
attr unit bit
par VANET.node[9].nic.mac1609_4 address "\"auto\""
par VANET.node[9].nic.mac1609_4 useServiceChannel false
par VANET.node[9].nic.mac1609_4 serviceChannel 1
par VANET.node[9].nic.mac1609_4 bitrate 6000000bps
attr unit bps
par VANET.node[9].nic.mac1609_4 syncOffset 0.0003s
attr unit s
par VANET.node[9].nic.mac1609_4 txPower 20mW
attr unit mW
par VANET.node[9].nic.mac1609_4 queueSize 0
par VANET.node[9].nic.mac1609_4 dot11RTSThreshold 12000bit
attr unit bit
par VANET.node[9].nic.mac1609_4 dot11ShortRetryLimit 7
par VANET.node[9].nic.mac1609_4 dot11LongRetryLimit 4
par VANET.node[9].nic.mac1609_4 ackLength 112bit
attr unit bit
par VANET.node[9].nic.mac1609_4 useAcks false
par VANET.node[9].nic.mac1609_4 frameErrorRate 0
par VANET.node[9].nic.mac1609_4 ackErrorRate 0
scalar VANET.node[9].nic.mac1609_4 ReceivedUnicastPackets 0
scalar VANET.node[9].nic.mac1609_4 ReceivedBroadcasts 1890
scalar VANET.node[9].nic.mac1609_4 SentPackets 118
scalar VANET.node[9].nic.mac1609_4 SentAcknowledgements 0
scalar VANET.node[9].nic.mac1609_4 RetriesExceeded 0
scalar VANET.node[9].nic.mac1609_4 SNIRLostPackets 41
scalar VANET.node[9].nic.mac1609_4 RXTXLostPackets 0
scalar VANET.node[9].nic.mac1609_4 TotalLostPackets 41
scalar VANET.node[9].nic.mac1609_4 DroppedPacketsInMac 0
scalar VANET.node[9].nic.mac1609_4 TooLittleTime 0
scalar VANET.node[9].nic.mac1609_4 TimesIntoBackoff 118
scalar VANET.node[9].nic.mac1609_4 SlotsBackoff 186
scalar VANET.node[9].nic.mac1609_4 NumInternalContention 0
scalar VANET.node[9].nic.mac1609_4 totalBusyTime 0.217694
scalar VANET.node[9].nic.mac1609_4 retriesExceeded:count 0
attr recordingmode count
attr source org_car2x_veins_modules_mac_sigRetriesExceeded
scalar VANET.node[9].nic.mac1609_4 sentAcks:count 0
attr recordingmode count
attr source org_car2x_veins_modules_mac_sigSentAck
scalar VANET.node[9].nic.mac1609_4 sentPackets:count 118
attr recordingmode count
attr source org_car2x_veins_modules_mac_sigSentPacket
scalar VANET.node[9].nic.mac1609_4 collisions:count 0
attr recordingmode count
attr source org_car2x_veins_modules_mac_sigCollision
scalar VANET.node[9].nic.mac1609_4 channelBusy:timeavg 0.0018667953781345
attr recordingmode timeavg
attr source org_car2x_veins_modules_mac_sigChannelBusy
par VANET.node[9].nic typename "\"org.car2x.veins.modules.nic.Nic80211p\""
par VANET.node[9].nic connectionManagerName "\"connectionManager\""
par VANET.node[9].veinsmobility typename "\"org.car2x.veins.modules.mobility.traci.TraCIMobility\""
par VANET.node[9].veinsmobility notAffectedByHostState true
par VANET.node[9].veinsmobility x 0
par VANET.node[9].veinsmobility y 0
par VANET.node[9].veinsmobility z 0
par VANET.node[9].veinsmobility xOrientation 1
par VANET.node[9].veinsmobility yOrientation 0
par VANET.node[9].veinsmobility zOrientation 0
par VANET.node[9].veinsmobility hostPositionOffset 0m
attr unit m
par VANET.node[9].veinsmobility setHostSpeed false
par VANET.node[9].veinsmobility accidentCount 0
par VANET.node[9].veinsmobility accidentStart 56.9591s
attr unit s
par VANET.node[9].veinsmobility accidentDuration "uniform(30s, 60s)"
attr unit s
par VANET.node[9].veinsmobility accidentInterval "uniform(30s, 60s)"
attr unit s
scalar VANET.node[9].veinsmobility startTime 28
scalar VANET.node[9].veinsmobility totalTime 116
scalar VANET.node[9].veinsmobility stopTime 144.61374489664
scalar VANET.node[9].veinsmobility minSpeed 0
scalar VANET.node[9].veinsmobility maxSpeed 13.9821787317
scalar VANET.node[9].veinsmobility totalDistance 1017.2437067563
scalar VANET.node[9].veinsmobility totalCO2Emission 251.10800285252
par VANET.node[9] typename "\"org.car2x.veins.nodes.Car\""
par VANET.node[9] applType "\"biblioteca_veins.CarApp\""
par VANET.node[9] nicType "\"Nic80211p\""
par VANET.node[9] veinsmobilityType "\"org.car2x.veins.modules.mobility.traci.TraCIMobility\""
par VANET.node[10].appl typename "\"biblioteca_veins.CarApp\""
par VANET.node[10].appl headerLength 80bit
attr unit bit
par VANET.node[10].appl sendBeacons true
par VANET.node[10].appl beaconLengthBits 256bit
attr unit bit
par VANET.node[10].appl beaconUserPriority 7
par VANET.node[10].appl beaconInterval 1s
attr unit s
par VANET.node[10].appl dataLengthBits 1024bit
attr unit bit
par VANET.node[10].appl dataOnSch false
par VANET.node[10].appl dataUserPriority 7
par VANET.node[10].appl avoidBeaconSynchronization true
par VANET.node[10].appl sendWSA false
par VANET.node[10].appl wsaLengthBits 250bit
attr unit bit
par VANET.node[10].appl wsaInterval 1s
attr unit s
scalar VANET.node[10].appl generatedWSMs 1
scalar VANET.node[10].appl receivedWSMs 34
scalar VANET.node[10].appl generatedBSMs 114
scalar VANET.node[10].appl receivedBSMs 1871
scalar VANET.node[10].appl generatedWSAs 0
scalar VANET.node[10].appl receivedWSAs 0
par VANET.node[10].nic.phy80211p typename "\"org.car2x.veins.modules.phy.PhyLayer80211p\""
par VANET.node[10].nic.phy80211p recordStats false
par VANET.node[10].nic.phy80211p usePropagationDelay true
par VANET.node[10].nic.phy80211p noiseFloor -98dBm
attr unit dBm
par VANET.node[10].nic.phy80211p useNoiseFloor true
par VANET.node[10].nic.phy80211p antenna "<Antenna type=\"SampledAntenna1D\" id=\"monopole\">...</Antenna> at /home/andreia/Projeto/workspace/biblioteca_veins/simulations//antenna.xml:35"
par VANET.node[10].nic.phy80211p antennaOffsetX 0m
attr unit m
par VANET.node[10].nic.phy80211p antennaOffsetY 0m
attr unit m
par VANET.node[10].nic.phy80211p antennaOffsetZ 1.895m
attr unit m
par VANET.node[10].nic.phy80211p antennaOffsetYaw 0rad
attr unit rad
par VANET.node[10].nic.phy80211p analogueModels "<root>...</root> at /home/andreia/Projeto/workspace/biblioteca_veins/simulations//config.xml:34"
par VANET.node[10].nic.phy80211p decider "<root>...</root> at /home/andreia/Projeto/workspace/biblioteca_veins/simulations//config.xml:34"
par VANET.node[10].nic.phy80211p minPowerLevel -110dBm
attr unit dBm
par VANET.node[10].nic.phy80211p timeRXToTX 0s
attr unit s
par VANET.node[10].nic.phy80211p timeRXToSleep 0s
attr unit s
par VANET.node[10].nic.phy80211p timeTXToRX 0s
attr unit s
par VANET.node[10].nic.phy80211p timeTXToSleep 0s
attr unit s
par VANET.node[10].nic.phy80211p timeSleepToRX 0s
attr unit s
par VANET.node[10].nic.phy80211p timeSleepToTX 0s
attr unit s
par VANET.node[10].nic.phy80211p initialRadioState 0
par VANET.node[10].nic.phy80211p radioMinAtt 1
par VANET.node[10].nic.phy80211p radioMaxAtt 0
par VANET.node[10].nic.phy80211p nbRadioChannels 1
par VANET.node[10].nic.phy80211p initialRadioChannel 0
par VANET.node[10].nic.phy80211p ccaThreshold -65dBm
attr unit dBm
par VANET.node[10].nic.phy80211p collectCollisionStatistics false
par VANET.node[10].nic.phy80211p allowTxDuringRx false
scalar VANET.node[10].nic.phy80211p busyTime 0.0018251312830912
par VANET.node[10].nic.mac1609_4 typename "\"org.car2x.veins.modules.mac.ieee80211p.Mac1609_4\""
par VANET.node[10].nic.mac1609_4 notAffectedByHostState false
par VANET.node[10].nic.mac1609_4 headerLength 0bit
attr unit bit
par VANET.node[10].nic.mac1609_4 address "\"auto\""
par VANET.node[10].nic.mac1609_4 useServiceChannel false
par VANET.node[10].nic.mac1609_4 serviceChannel 1
par VANET.node[10].nic.mac1609_4 bitrate 6000000bps
attr unit bps
par VANET.node[10].nic.mac1609_4 syncOffset 0.0003s
attr unit s
par VANET.node[10].nic.mac1609_4 txPower 20mW
attr unit mW
par VANET.node[10].nic.mac1609_4 queueSize 0
par VANET.node[10].nic.mac1609_4 dot11RTSThreshold 12000bit
attr unit bit
par VANET.node[10].nic.mac1609_4 dot11ShortRetryLimit 7
par VANET.node[10].nic.mac1609_4 dot11LongRetryLimit 4
par VANET.node[10].nic.mac1609_4 ackLength 112bit
attr unit bit
par VANET.node[10].nic.mac1609_4 useAcks false
par VANET.node[10].nic.mac1609_4 frameErrorRate 0
par VANET.node[10].nic.mac1609_4 ackErrorRate 0
scalar VANET.node[10].nic.mac1609_4 ReceivedUnicastPackets 0
scalar VANET.node[10].nic.mac1609_4 ReceivedBroadcasts 1905
scalar VANET.node[10].nic.mac1609_4 SentPackets 115
scalar VANET.node[10].nic.mac1609_4 SentAcknowledgements 0
scalar VANET.node[10].nic.mac1609_4 RetriesExceeded 0
scalar VANET.node[10].nic.mac1609_4 SNIRLostPackets 47
scalar VANET.node[10].nic.mac1609_4 RXTXLostPackets 0
scalar VANET.node[10].nic.mac1609_4 TotalLostPackets 47
scalar VANET.node[10].nic.mac1609_4 DroppedPacketsInMac 0
scalar VANET.node[10].nic.mac1609_4 TooLittleTime 0
scalar VANET.node[10].nic.mac1609_4 TimesIntoBackoff 115
scalar VANET.node[10].nic.mac1609_4 SlotsBackoff 159
scalar VANET.node[10].nic.mac1609_4 NumInternalContention 0
scalar VANET.node[10].nic.mac1609_4 totalBusyTime 0.219563
scalar VANET.node[10].nic.mac1609_4 retriesExceeded:count 0
attr recordingmode count
attr source org_car2x_veins_modules_mac_sigRetriesExceeded
scalar VANET.node[10].nic.mac1609_4 sentAcks:count 0
attr recordingmode count
attr source org_car2x_veins_modules_mac_sigSentAck
scalar VANET.node[10].nic.mac1609_4 sentPackets:count 115
attr recordingmode count
attr source org_car2x_veins_modules_mac_sigSentPacket
[...]
attr unit bit
par VANET.node[46].appl beaconUserPriority 7
par VANET.node[46].appl beaconInterval 1s
attr unit s
par VANET.node[46].appl dataLengthBits 1024bit
attr unit bit
par VANET.node[46].appl dataOnSch false
par VANET.node[46].appl dataUserPriority 7
par VANET.node[46].appl avoidBeaconSynchronization true
par VANET.node[46].appl sendWSA false
par VANET.node[46].appl wsaLengthBits 250bit
attr unit bit
par VANET.node[46].appl wsaInterval 1s
attr unit s
scalar VANET.node[46].appl generatedWSMs 0
scalar VANET.node[46].appl receivedWSMs 0
scalar VANET.node[46].appl generatedBSMs 6
scalar VANET.node[46].appl receivedBSMs 154
scalar VANET.node[46].appl generatedWSAs 0
scalar VANET.node[46].appl receivedWSAs 0
par VANET.node[46].nic.phy80211p typename "\"org.car2x.veins.modules.phy.PhyLayer80211p\""
par VANET.node[46].nic.phy80211p recordStats false
par VANET.node[46].nic.phy80211p usePropagationDelay true
par VANET.node[46].nic.phy80211p noiseFloor -98dBm
attr unit dBm
par VANET.node[46].nic.phy80211p useNoiseFloor true
par VANET.node[46].nic.phy80211p antenna "<Antenna type=\"SampledAntenna1D\" id=\"monopole\">...</Antenna> at /home/andreia/Projeto/workspace/biblioteca_veins/simulations//antenna.xml:35"
par VANET.node[46].nic.phy80211p antennaOffsetX 0m
attr unit m
par VANET.node[46].nic.phy80211p antennaOffsetY 0m
attr unit m
par VANET.node[46].nic.phy80211p antennaOffsetZ 1.895m
attr unit m
par VANET.node[46].nic.phy80211p antennaOffsetYaw 0rad
attr unit rad
par VANET.node[46].nic.phy80211p analogueModels "<root>...</root> at /home/andreia/Projeto/workspace/biblioteca_veins/simulations//config.xml:34"
par VANET.node[46].nic.phy80211p decider "<root>...</root> at /home/andreia/Projeto/workspace/biblioteca_veins/simulations//config.xml:34"
par VANET.node[46].nic.phy80211p minPowerLevel -110dBm
attr unit dBm
par VANET.node[46].nic.phy80211p timeRXToTX 0s
attr unit s
par VANET.node[46].nic.phy80211p timeRXToSleep 0s
attr unit s
par VANET.node[46].nic.phy80211p timeTXToRX 0s
attr unit s
par VANET.node[46].nic.phy80211p timeTXToSleep 0s
attr unit s
par VANET.node[46].nic.phy80211p timeSleepToRX 0s
attr unit s
par VANET.node[46].nic.phy80211p timeSleepToTX 0s
attr unit s
par VANET.node[46].nic.phy80211p initialRadioState 0
par VANET.node[46].nic.phy80211p radioMinAtt 1
par VANET.node[46].nic.phy80211p radioMaxAtt 0
par VANET.node[46].nic.phy80211p nbRadioChannels 1
par VANET.node[46].nic.phy80211p initialRadioChannel 0
par VANET.node[46].nic.phy80211p ccaThreshold -65dBm
attr unit dBm
par VANET.node[46].nic.phy80211p collectCollisionStatistics false
par VANET.node[46].nic.phy80211p allowTxDuringRx false
scalar VANET.node[46].nic.phy80211p busyTime 0.0034458281158433
par VANET.node[46].nic.mac1609_4 typename "\"org.car2x.veins.modules.mac.ieee80211p.Mac1609_4\""
par VANET.node[46].nic.mac1609_4 notAffectedByHostState false
par VANET.node[46].nic.mac1609_4 headerLength 0bit
attr unit bit
par VANET.node[46].nic.mac1609_4 address "\"auto\""
par VANET.node[46].nic.mac1609_4 useServiceChannel false
par VANET.node[46].nic.mac1609_4 serviceChannel 1
par VANET.node[46].nic.mac1609_4 bitrate 6000000bps
attr unit bps
par VANET.node[46].nic.mac1609_4 syncOffset 0.0003s
attr unit s
par VANET.node[46].nic.mac1609_4 txPower 20mW
attr unit mW
par VANET.node[46].nic.mac1609_4 queueSize 0
par VANET.node[46].nic.mac1609_4 dot11RTSThreshold 12000bit
attr unit bit
par VANET.node[46].nic.mac1609_4 dot11ShortRetryLimit 7
par VANET.node[46].nic.mac1609_4 dot11LongRetryLimit 4
par VANET.node[46].nic.mac1609_4 ackLength 112bit
attr unit bit
par VANET.node[46].nic.mac1609_4 useAcks false
par VANET.node[46].nic.mac1609_4 frameErrorRate 0
par VANET.node[46].nic.mac1609_4 ackErrorRate 0
scalar VANET.node[46].nic.mac1609_4 ReceivedUnicastPackets 0
scalar VANET.node[46].nic.mac1609_4 ReceivedBroadcasts 154
scalar VANET.node[46].nic.mac1609_4 SentPackets 6
scalar VANET.node[46].nic.mac1609_4 SentAcknowledgements 0
scalar VANET.node[46].nic.mac1609_4 RetriesExceeded 0
scalar VANET.node[46].nic.mac1609_4 SNIRLostPackets 32
scalar VANET.node[46].nic.mac1609_4 RXTXLostPackets 0
scalar VANET.node[46].nic.mac1609_4 TotalLostPackets 32
scalar VANET.node[46].nic.mac1609_4 DroppedPacketsInMac 0
scalar VANET.node[46].nic.mac1609_4 TooLittleTime 0
scalar VANET.node[46].nic.mac1609_4 TimesIntoBackoff 6
scalar VANET.node[46].nic.mac1609_4 SlotsBackoff 13
scalar VANET.node[46].nic.mac1609_4 NumInternalContention 0
scalar VANET.node[46].nic.mac1609_4 totalBusyTime 0.019974
scalar VANET.node[46].nic.mac1609_4 retriesExceeded:count 0
attr recordingmode count
attr source org_car2x_veins_modules_mac_sigRetriesExceeded
scalar VANET.node[46].nic.mac1609_4 sentAcks:count 0
attr recordingmode count
attr source org_car2x_veins_modules_mac_sigSentAck
scalar VANET.node[46].nic.mac1609_4 sentPackets:count 6
attr recordingmode count
attr source org_car2x_veins_modules_mac_sigSentPacket
scalar VANET.node[46].nic.mac1609_4 collisions:count 0
attr recordingmode count
attr source org_car2x_veins_modules_mac_sigCollision
scalar VANET.node[46].nic.mac1609_4 channelBusy:timeavg 0.0035580526667625
attr recordingmode timeavg
attr source org_car2x_veins_modules_mac_sigChannelBusy
par VANET.node[46].nic typename "\"org.car2x.veins.modules.nic.Nic80211p\""
par VANET.node[46].nic connectionManagerName "\"connectionManager\""
par VANET.node[46].veinsmobility typename "\"org.car2x.veins.modules.mobility.traci.TraCIMobility\""
par VANET.node[46].veinsmobility notAffectedByHostState true
par VANET.node[46].veinsmobility x 0
par VANET.node[46].veinsmobility y 0
par VANET.node[46].veinsmobility z 0
par VANET.node[46].veinsmobility xOrientation 1
par VANET.node[46].veinsmobility yOrientation 0
par VANET.node[46].veinsmobility zOrientation 0
par VANET.node[46].veinsmobility hostPositionOffset 0m
attr unit m
par VANET.node[46].veinsmobility setHostSpeed false
par VANET.node[46].veinsmobility accidentCount 0
par VANET.node[46].veinsmobility accidentStart 53.0586s
attr unit s
par VANET.node[46].veinsmobility accidentDuration "uniform(30s, 60s)"
attr unit s
par VANET.node[46].veinsmobility accidentInterval "uniform(30s, 60s)"
attr unit s
scalar VANET.node[46].veinsmobility startTime 139
scalar VANET.node[46].veinsmobility totalTime 5
scalar VANET.node[46].veinsmobility stopTime 144.61374489664
scalar VANET.node[46].veinsmobility minSpeed 4.0839806697699
scalar VANET.node[46].veinsmobility maxSpeed 11.722506807618
scalar VANET.node[46].veinsmobility totalDistance 35.911169932457
scalar VANET.node[46].veinsmobility totalCO2Emission 22.815115604561
par VANET.node[46] typename "\"org.car2x.veins.nodes.Car\""
par VANET.node[46] applType "\"biblioteca_veins.CarApp\""
par VANET.node[46] nicType "\"Nic80211p\""
par VANET.node[46] veinsmobilityType "\"org.car2x.veins.modules.mobility.traci.TraCIMobility\""
par VANET.node[47].appl typename "\"biblioteca_veins.CarApp\""
par VANET.node[47].appl headerLength 80bit
attr unit bit
par VANET.node[47].appl sendBeacons true
par VANET.node[47].appl beaconLengthBits 256bit
attr unit bit
par VANET.node[47].appl beaconUserPriority 7
par VANET.node[47].appl beaconInterval 1s
attr unit s
par VANET.node[47].appl dataLengthBits 1024bit
attr unit bit
par VANET.node[47].appl dataOnSch false
par VANET.node[47].appl dataUserPriority 7
par VANET.node[47].appl avoidBeaconSynchronization true
par VANET.node[47].appl sendWSA false
par VANET.node[47].appl wsaLengthBits 250bit
attr unit bit
par VANET.node[47].appl wsaInterval 1s
attr unit s
scalar VANET.node[47].appl generatedWSMs 0
scalar VANET.node[47].appl receivedWSMs 0
scalar VANET.node[47].appl generatedBSMs 3
scalar VANET.node[47].appl receivedBSMs 73
scalar VANET.node[47].appl generatedWSAs 0
scalar VANET.node[47].appl receivedWSAs 0
par VANET.node[47].nic.phy80211p typename "\"org.car2x.veins.modules.phy.PhyLayer80211p\""
par VANET.node[47].nic.phy80211p recordStats false
par VANET.node[47].nic.phy80211p usePropagationDelay true
par VANET.node[47].nic.phy80211p noiseFloor -98dBm
attr unit dBm
par VANET.node[47].nic.phy80211p useNoiseFloor true
par VANET.node[47].nic.phy80211p antenna "<Antenna type=\"SampledAntenna1D\" id=\"monopole\">...</Antenna> at /home/andreia/Projeto/workspace/biblioteca_veins/simulations//antenna.xml:35"
par VANET.node[47].nic.phy80211p antennaOffsetX 0m
attr unit m
par VANET.node[47].nic.phy80211p antennaOffsetY 0m
attr unit m
par VANET.node[47].nic.phy80211p antennaOffsetZ 1.895m
attr unit m
par VANET.node[47].nic.phy80211p antennaOffsetYaw 0rad
attr unit rad
par VANET.node[47].nic.phy80211p analogueModels "<root>...</root> at /home/andreia/Projeto/workspace/biblioteca_veins/simulations//config.xml:34"
par VANET.node[47].nic.phy80211p decider "<root>...</root> at /home/andreia/Projeto/workspace/biblioteca_veins/simulations//config.xml:34"
par VANET.node[47].nic.phy80211p minPowerLevel -110dBm
attr unit dBm
par VANET.node[47].nic.phy80211p timeRXToTX 0s
attr unit s
par VANET.node[47].nic.phy80211p timeRXToSleep 0s
attr unit s
par VANET.node[47].nic.phy80211p timeTXToRX 0s
attr unit s
par VANET.node[47].nic.phy80211p timeTXToSleep 0s
attr unit s
par VANET.node[47].nic.phy80211p timeSleepToRX 0s
attr unit s
par VANET.node[47].nic.phy80211p timeSleepToTX 0s
attr unit s
par VANET.node[47].nic.phy80211p initialRadioState 0
par VANET.node[47].nic.phy80211p radioMinAtt 1
par VANET.node[47].nic.phy80211p radioMaxAtt 0
par VANET.node[47].nic.phy80211p nbRadioChannels 1
par VANET.node[47].nic.phy80211p initialRadioChannel 0
par VANET.node[47].nic.phy80211p ccaThreshold -65dBm
attr unit dBm
par VANET.node[47].nic.phy80211p collectCollisionStatistics false
par VANET.node[47].nic.phy80211p allowTxDuringRx false
scalar VANET.node[47].nic.phy80211p busyTime 0.0041381238138124
par VANET.node[47].nic.mac1609_4 typename "\"org.car2x.veins.modules.mac.ieee80211p.Mac1609_4\""
par VANET.node[47].nic.mac1609_4 notAffectedByHostState false
par VANET.node[47].nic.mac1609_4 headerLength 0bit
attr unit bit
par VANET.node[47].nic.mac1609_4 address "\"auto\""
par VANET.node[47].nic.mac1609_4 useServiceChannel false
par VANET.node[47].nic.mac1609_4 serviceChannel 1
par VANET.node[47].nic.mac1609_4 bitrate 6000000bps
attr unit bps
par VANET.node[47].nic.mac1609_4 syncOffset 0.0003s
attr unit s
par VANET.node[47].nic.mac1609_4 txPower 20mW
attr unit mW
par VANET.node[47].nic.mac1609_4 queueSize 0
par VANET.node[47].nic.mac1609_4 dot11RTSThreshold 12000bit
attr unit bit
par VANET.node[47].nic.mac1609_4 dot11ShortRetryLimit 7
par VANET.node[47].nic.mac1609_4 dot11LongRetryLimit 4
par VANET.node[47].nic.mac1609_4 ackLength 112bit
attr unit bit
par VANET.node[47].nic.mac1609_4 useAcks false
par VANET.node[47].nic.mac1609_4 frameErrorRate 0
par VANET.node[47].nic.mac1609_4 ackErrorRate 0
scalar VANET.node[47].nic.mac1609_4 ReceivedUnicastPackets 0
scalar VANET.node[47].nic.mac1609_4 ReceivedBroadcasts 73
scalar VANET.node[47].nic.mac1609_4 SentPackets 3
scalar VANET.node[47].nic.mac1609_4 SentAcknowledgements 0
scalar VANET.node[47].nic.mac1609_4 RetriesExceeded 0
scalar VANET.node[47].nic.mac1609_4 SNIRLostPackets 31
scalar VANET.node[47].nic.mac1609_4 RXTXLostPackets 0
scalar VANET.node[47].nic.mac1609_4 TotalLostPackets 31
scalar VANET.node[47].nic.mac1609_4 DroppedPacketsInMac 0
scalar VANET.node[47].nic.mac1609_4 TooLittleTime 0
scalar VANET.node[47].nic.mac1609_4 TimesIntoBackoff 3
scalar VANET.node[47].nic.mac1609_4 SlotsBackoff 5
scalar VANET.node[47].nic.mac1609_4 NumInternalContention 0
scalar VANET.node[47].nic.mac1609_4 totalBusyTime 0.011131
scalar VANET.node[47].nic.mac1609_4 retriesExceeded:count 0
attr recordingmode count
attr source org_car2x_veins_modules_mac_sigRetriesExceeded
scalar VANET.node[47].nic.mac1609_4 sentAcks:count 0
attr recordingmode count
attr source org_car2x_veins_modules_mac_sigSentAck
scalar VANET.node[47].nic.mac1609_4 sentPackets:count 3
attr recordingmode count
attr source org_car2x_veins_modules_mac_sigSentPacket
scalar VANET.node[47].nic.mac1609_4 collisions:count 0
attr recordingmode count
attr source org_car2x_veins_modules_mac_sigCollision
scalar VANET.node[47].nic.mac1609_4 channelBusy:timeavg 0.0042586405484047
attr recordingmode timeavg
attr source org_car2x_veins_modules_mac_sigChannelBusy
par VANET.node[47].nic typename "\"org.car2x.veins.modules.nic.Nic80211p\""
par VANET.node[47].nic connectionManagerName "\"connectionManager\""
par VANET.node[47].veinsmobility typename "\"org.car2x.veins.modules.mobility.traci.TraCIMobility\""
par VANET.node[47].veinsmobility notAffectedByHostState true
par VANET.node[47].veinsmobility x 0
par VANET.node[47].veinsmobility y 0
par VANET.node[47].veinsmobility z 0
par VANET.node[47].veinsmobility xOrientation 1
par VANET.node[47].veinsmobility yOrientation 0
par VANET.node[47].veinsmobility zOrientation 0
par VANET.node[47].veinsmobility hostPositionOffset 0m
attr unit m
par VANET.node[47].veinsmobility setHostSpeed false
par VANET.node[47].veinsmobility accidentCount 0
par VANET.node[47].veinsmobility accidentStart 35.5245s
attr unit s
par VANET.node[47].veinsmobility accidentDuration "uniform(30s, 60s)"
attr unit s
par VANET.node[47].veinsmobility accidentInterval "uniform(30s, 60s)"
attr unit s
scalar VANET.node[47].veinsmobility startTime 142
scalar VANET.node[47].veinsmobility totalTime 2
scalar VANET.node[47].veinsmobility stopTime 144.61374489664
scalar VANET.node[47].veinsmobility minSpeed 3.7465511067005
scalar VANET.node[47].veinsmobility maxSpeed 5.6776229185335
scalar VANET.node[47].veinsmobility totalDistance 7.7484136371056
scalar VANET.node[47].veinsmobility totalCO2Emission 4.0430950703078
par VANET.node[47] typename "\"org.car2x.veins.nodes.Car\""
par VANET.node[47] applType "\"biblioteca_veins.CarApp\""
par VANET.node[47] nicType "\"Nic80211p\""
par VANET.node[47] veinsmobilityType "\"org.car2x.veins.modules.mobility.traci.TraCIMobility\""
par VANET.rsu[0].appl typename "\"biblioteca_veins.RSUApp\""
par VANET.rsu[0].appl headerLength 80bit
attr unit bit
par VANET.rsu[0].appl sendBeacons true
par VANET.rsu[0].appl beaconLengthBits 256bit
attr unit bit
par VANET.rsu[0].appl beaconUserPriority 7
par VANET.rsu[0].appl beaconInterval 1s
attr unit s
par VANET.rsu[0].appl dataLengthBits 1024bit
attr unit bit
par VANET.rsu[0].appl dataOnSch false
par VANET.rsu[0].appl dataUserPriority 5
par VANET.rsu[0].appl avoidBeaconSynchronization true
par VANET.rsu[0].appl sendWSA false
par VANET.rsu[0].appl wsaLengthBits 250bit
attr unit bit
par VANET.rsu[0].appl wsaInterval 1s
attr unit s
scalar VANET.rsu[0].appl generatedWSMs 12
scalar VANET.rsu[0].appl receivedWSMs 12
scalar VANET.rsu[0].appl generatedBSMs 144
scalar VANET.rsu[0].appl receivedBSMs 1205
scalar VANET.rsu[0].appl generatedWSAs 0
scalar VANET.rsu[0].appl receivedWSAs 0
par VANET.rsu[0].nic.phy80211p typename "\"org.car2x.veins.modules.phy.PhyLayer80211p\""
par VANET.rsu[0].nic.phy80211p recordStats false
par VANET.rsu[0].nic.phy80211p usePropagationDelay true
par VANET.rsu[0].nic.phy80211p noiseFloor -98dBm
attr unit dBm
par VANET.rsu[0].nic.phy80211p useNoiseFloor true
par VANET.rsu[0].nic.phy80211p antenna "<Antenna type=\"SampledAntenna1D\" id=\"monopole\">...</Antenna> at /home/andreia/Projeto/workspace/biblioteca_veins/simulations//antenna.xml:35"
par VANET.rsu[0].nic.phy80211p antennaOffsetX 0m
attr unit m
par VANET.rsu[0].nic.phy80211p antennaOffsetY 0m
attr unit m
par VANET.rsu[0].nic.phy80211p antennaOffsetZ 0m
attr unit m
par VANET.rsu[0].nic.phy80211p antennaOffsetYaw 0rad
attr unit rad
par VANET.rsu[0].nic.phy80211p analogueModels "<root>...</root> at /home/andreia/Projeto/workspace/biblioteca_veins/simulations//config.xml:34"
par VANET.rsu[0].nic.phy80211p decider "<root>...</root> at /home/andreia/Projeto/workspace/biblioteca_veins/simulations//config.xml:34"
par VANET.rsu[0].nic.phy80211p minPowerLevel -110dBm
attr unit dBm
par VANET.rsu[0].nic.phy80211p timeRXToTX 0s
attr unit s
par VANET.rsu[0].nic.phy80211p timeRXToSleep 0s
attr unit s
par VANET.rsu[0].nic.phy80211p timeTXToRX 0s
attr unit s
par VANET.rsu[0].nic.phy80211p timeTXToSleep 0s
attr unit s
par VANET.rsu[0].nic.phy80211p timeSleepToRX 0s
attr unit s
par VANET.rsu[0].nic.phy80211p timeSleepToTX 0s
attr unit s
par VANET.rsu[0].nic.phy80211p initialRadioState 0
par VANET.rsu[0].nic.phy80211p radioMinAtt 1
par VANET.rsu[0].nic.phy80211p radioMaxAtt 0
par VANET.rsu[0].nic.phy80211p nbRadioChannels 1
par VANET.rsu[0].nic.phy80211p initialRadioChannel 0
par VANET.rsu[0].nic.phy80211p ccaThreshold -65dBm
attr unit dBm
par VANET.rsu[0].nic.phy80211p collectCollisionStatistics false
par VANET.rsu[0].nic.phy80211p allowTxDuringRx false
scalar VANET.rsu[0].nic.phy80211p busyTime 0.0011439576515928
par VANET.rsu[0].nic.mac1609_4 typename "\"org.car2x.veins.modules.mac.ieee80211p.Mac1609_4\""
par VANET.rsu[0].nic.mac1609_4 notAffectedByHostState false
par VANET.rsu[0].nic.mac1609_4 headerLength 0bit
attr unit bit
par VANET.rsu[0].nic.mac1609_4 address "\"auto\""
par VANET.rsu[0].nic.mac1609_4 useServiceChannel false
par VANET.rsu[0].nic.mac1609_4 serviceChannel 1
par VANET.rsu[0].nic.mac1609_4 bitrate 6000000bps
attr unit bps
par VANET.rsu[0].nic.mac1609_4 syncOffset 0.0003s
attr unit s
par VANET.rsu[0].nic.mac1609_4 txPower 20mW
attr unit mW
par VANET.rsu[0].nic.mac1609_4 queueSize 0
par VANET.rsu[0].nic.mac1609_4 dot11RTSThreshold 12000bit
attr unit bit
par VANET.rsu[0].nic.mac1609_4 dot11ShortRetryLimit 7
par VANET.rsu[0].nic.mac1609_4 dot11LongRetryLimit 4
par VANET.rsu[0].nic.mac1609_4 ackLength 112bit
attr unit bit
par VANET.rsu[0].nic.mac1609_4 useAcks false
par VANET.rsu[0].nic.mac1609_4 frameErrorRate 0
par VANET.rsu[0].nic.mac1609_4 ackErrorRate 0
scalar VANET.rsu[0].nic.mac1609_4 ReceivedUnicastPackets 0
scalar VANET.rsu[0].nic.mac1609_4 ReceivedBroadcasts 1217
scalar VANET.rsu[0].nic.mac1609_4 SentPackets 156
scalar VANET.rsu[0].nic.mac1609_4 SentAcknowledgements 0
scalar VANET.rsu[0].nic.mac1609_4 RetriesExceeded 0
scalar VANET.rsu[0].nic.mac1609_4 SNIRLostPackets 354
scalar VANET.rsu[0].nic.mac1609_4 RXTXLostPackets 0
scalar VANET.rsu[0].nic.mac1609_4 TotalLostPackets 354
scalar VANET.rsu[0].nic.mac1609_4 DroppedPacketsInMac 0
scalar VANET.rsu[0].nic.mac1609_4 TooLittleTime 0
scalar VANET.rsu[0].nic.mac1609_4 TimesIntoBackoff 156
scalar VANET.rsu[0].nic.mac1609_4 SlotsBackoff 251
scalar VANET.rsu[0].nic.mac1609_4 NumInternalContention 0
scalar VANET.rsu[0].nic.mac1609_4 totalBusyTime 0.183348
scalar VANET.rsu[0].nic.mac1609_4 retriesExceeded:count 0
attr recordingmode count
attr source org_car2x_veins_modules_mac_sigRetriesExceeded
scalar VANET.rsu[0].nic.mac1609_4 sentAcks:count 0
attr recordingmode count
attr source org_car2x_veins_modules_mac_sigSentAck
scalar VANET.rsu[0].nic.mac1609_4 sentPackets:count 156
attr recordingmode count
attr source org_car2x_veins_modules_mac_sigSentPacket
scalar VANET.rsu[0].nic.mac1609_4 collisions:count 0
attr recordingmode count
attr source org_car2x_veins_modules_mac_sigCollision
scalar VANET.rsu[0].nic.mac1609_4 channelBusy:timeavg 0.0012678462903443
attr recordingmode timeavg
attr source org_car2x_veins_modules_mac_sigChannelBusy
par VANET.rsu[0].nic typename "\"org.car2x.veins.modules.nic.Nic80211p\""
par VANET.rsu[0].nic connectionManagerName "\"connectionManager\""
par VANET.rsu[0].mobility typename "\"org.car2x.veins.base.modules.BaseMobility\""
par VANET.rsu[0].mobility notAffectedByHostState true
par VANET.rsu[0].mobility x 2000
par VANET.rsu[0].mobility y 2000
par VANET.rsu[0].mobility z 3
par VANET.rsu[0].mobility xOrientation 1
par VANET.rsu[0].mobility yOrientation 0
par VANET.rsu[0].mobility zOrientation 0
par VANET.rsu[0] typename "\"org.car2x.veins.nodes.RSU\""
par VANET.rsu[0] applType "\"biblioteca_veins.RSUApp\""
par VANET.rsu[0] nicType "\"Nic80211p\""
par VANET typename "\"biblioteca_veins.simulations.VANET\""
par VANET playgroundSizeX 2500m
attr unit m
par VANET playgroundSizeY 2500m
attr unit m
par VANET playgroundSizeZ 50m
attr unit m

