version 3
run WithBeaconing-0-20240911-20:16:01-16364
attr configname WithBeaconing
attr datetime 20240911-20:16:01
attr datetimef 20240911-201601
attr experiment WithBeaconing
attr inifile omnetpp.ini
attr iterationvars ""
attr iterationvarsd ""
attr iterationvarsf ""
attr measurement ""
attr network VANET
attr processid 16364
attr repetition 0
attr replication #0
attr resultdir results
attr runnumber 0
attr seedset 0
config image-path ../../veins/images
config *.rsu[*].appl.sendBeacons true
config *.node[*].appl.sendBeacons true
config cmdenv-express-mode true
config cmdenv-autoflush true
config cmdenv-status-frequency 1s
config **.cmdenv-log-level info
config image-path ../../images
config network VANET
config debug-on-errors true
config print-undisposed true
config sim-time-limit 200s
config **.scalar-recording true
config **.vector-recording true
config *.playgroundSizeX 2500m
config *.playgroundSizeY 2500m
config *.playgroundSizeZ 50m
config *.annotations.draw true
config *.obstacles.obstacles "xmldoc(\"config.xml\", \"//AnalogueModel[@type='SimpleObstacleShadowing']/obstacles\")"
config *.manager.updateInterval 1s
config *.manager.host "\"localhost\""
config *.manager.port 9999
config *.manager.autoShutdown true
config *.manager.launchConfig "xmldoc(\"erlangen.launchd.xml\")"
config *.rsu[0].mobility.x 2000
config *.rsu[0].mobility.y 2000
config *.rsu[0].mobility.z 3
config *.rsu[*].applType "\"biblioteca_veins.RSUApp\""
config *.rsu[*].appl.headerLength "80 bit"
config *.rsu[*].appl.sendBeacons false
config *.rsu[*].appl.dataOnSch false
config *.rsu[*].appl.beaconInterval 1s
config *.rsu[*].appl.beaconUserPriority 7
config *.rsu[*].appl.dataUserPriority 5
config *.rsu[*].nic.phy80211p.antennaOffsetZ "0 m"
config *.connectionManager.sendDirect true
config *.connectionManager.maxInterfDist 2600m
config *.connectionManager.drawMaxIntfDist false
config *.**.nic.mac1609_4.useServiceChannel false
config *.**.nic.mac1609_4.txPower 20mW
config *.**.nic.mac1609_4.bitrate 6Mbps
config *.**.nic.phy80211p.minPowerLevel -110dBm
config *.**.nic.phy80211p.useNoiseFloor true
config *.**.nic.phy80211p.noiseFloor -98dBm
config *.**.nic.phy80211p.decider "xmldoc(\"config.xml\")"
config *.**.nic.phy80211p.analogueModels "xmldoc(\"config.xml\")"
config *.**.nic.phy80211p.usePropagationDelay true
config *.**.nic.phy80211p.antenna "xmldoc(\"antenna.xml\", \"/root/Antenna[@id='monopole']\")"
config *.node[*].nic.phy80211p.antennaOffsetY "0 m"
config *.node[*].nic.phy80211p.antennaOffsetZ "1.895 m"
config *.node[*].applType "\"biblioteca_veins.CarApp\""
config *.node[*].appl.headerLength "80 bit"
config *.node[*].appl.sendBeacons false
config *.node[*].appl.dataOnSch false
config *.node[*].appl.beaconInterval 1s
config *.node[*].veinsmobility.x 0
config *.node[*].veinsmobility.y 0
config *.node[*].veinsmobility.z 0
config *.node[*].veinsmobility.setHostSpeed false
config *.node[*0].veinsmobility.accidentCount 1
config *.node[*0].veinsmobility.accidentStart 73s
config *.node[*0].veinsmobility.accidentDuration 50s

par VANET.obstacles typename "\"org.car2x.veins.modules.obstacle.ObstacleControl\""
par VANET.obstacles obstacles "<obstacles>...</obstacles> at /home/andreia/Projeto/workspace/biblioteca_veins/simulations//config.xml:40"
par VANET.obstacles gridCellSize 250
par VANET.annotations typename "\"org.car2x.veins.modules.world.annotations.AnnotationManager\""
par VANET.annotations draw true
par VANET.annotations annotations "<annotations/> at content:1"
par VANET.connectionManager typename "\"org.car2x.veins.base.connectionManager.ConnectionManager\""
par VANET.connectionManager sendDirect true
par VANET.connectionManager maxInterfDist 2600m
attr unit m
par VANET.connectionManager drawMaxIntfDist false
par VANET.world typename "\"org.car2x.veins.base.modules.BaseWorldUtility\""
par VANET.world playgroundSizeX 2500m
attr unit m
par VANET.world playgroundSizeY 2500m
attr unit m
par VANET.world playgroundSizeZ 50m
attr unit m
par VANET.world useTorus false
par VANET.world use2D false
par VANET.manager typename "\"org.car2x.veins.modules.mobility.traci.TraCIScenarioManagerLaunchd\""
par VANET.manager connectAt 0s
attr unit s
par VANET.manager firstStepAt -1s
attr unit s
par VANET.manager updateInterval 1s
attr unit s
par VANET.manager moduleType "\"org.car2x.veins.nodes.Car\""
par VANET.manager moduleName "\"node\""
par VANET.manager moduleDisplayString "\"*='i=veins/node/car;is=vs'\""
par VANET.manager trafficLightModuleType "\"\""
par VANET.manager trafficLightModuleName "\"tls\""
par VANET.manager trafficLightFilter "\"\""
par VANET.manager trafficLightModuleDisplayString "\"i=misc/node2;is=vs;r=0,,#707070,1\""
par VANET.manager host "\"localhost\""
par VANET.manager port 9999
par VANET.manager seed -1
par VANET.manager autoShutdown true
par VANET.manager margin 25
par VANET.manager roiRoads "\"\""
par VANET.manager roiRects "\"\""
par VANET.manager penetrationRate 1
par VANET.manager ignoreGuiCommands false
par VANET.manager launchConfig "<launch>...</launch> at /home/andreia/Projeto/workspace/biblioteca_veins/simulations//erlangen.launchd.xml:35"
scalar VANET.manager roiArea 0
par VANET.roadsCanvasVisualizer typename "\"org.car2x.veins.visualizer.roads.RoadsCanvasVisualizer\""
par VANET.roadsCanvasVisualizer enabled true
par VANET.roadsCanvasVisualizer lineZIndex -1
par VANET.roadsCanvasVisualizer lineColor "\"firebrick4\""
par VANET.roadsCanvasVisualizer lineWidth 1
par VANET.roadsCanvasVisualizer lineWidthZoom false
par VANET.node[0].appl typename "\"biblioteca_veins.CarApp\""
par VANET.node[0].appl headerLength 80bit
attr unit bit
par VANET.node[0].appl sendBeacons true
par VANET.node[0].appl beaconLengthBits 256bit
attr unit bit
par VANET.node[0].appl beaconUserPriority 7
par VANET.node[0].appl beaconInterval 1s
attr unit s
par VANET.node[0].appl dataLengthBits 1024bit
attr unit bit
par VANET.node[0].appl dataOnSch false
par VANET.node[0].appl dataUserPriority 7
par VANET.node[0].appl avoidBeaconSynchronization true
par VANET.node[0].appl sendWSA false
par VANET.node[0].appl wsaLengthBits 250bit
attr unit bit
par VANET.node[0].appl wsaInterval 1s
attr unit s
scalar VANET.node[0].appl generatedWSMs 1
scalar VANET.node[0].appl receivedWSMs 26
scalar VANET.node[0].appl generatedBSMs 199
scalar VANET.node[0].appl receivedBSMs 2195
scalar VANET.node[0].appl generatedWSAs 0
scalar VANET.node[0].appl receivedWSAs 0
par VANET.node[0].nic.phy80211p typename "\"org.car2x.veins.modules.phy.PhyLayer80211p\""
par VANET.node[0].nic.phy80211p recordStats false
par VANET.node[0].nic.phy80211p usePropagationDelay true
par VANET.node[0].nic.phy80211p noiseFloor -98dBm
attr unit dBm
par VANET.node[0].nic.phy80211p useNoiseFloor true
par VANET.node[0].nic.phy80211p antenna "<Antenna type=\"SampledAntenna1D\" id=\"monopole\">...</Antenna> at /home/andreia/Projeto/workspace/biblioteca_veins/simulations//antenna.xml:35"
par VANET.node[0].nic.phy80211p antennaOffsetX 0m
attr unit m
par VANET.node[0].nic.phy80211p antennaOffsetY 0m
attr unit m
par VANET.node[0].nic.phy80211p antennaOffsetZ 1.895m
attr unit m
par VANET.node[0].nic.phy80211p antennaOffsetYaw 0rad
attr unit rad
par VANET.node[0].nic.phy80211p analogueModels "<root>...</root> at /home/andreia/Projeto/workspace/biblioteca_veins/simulations//config.xml:34"
par VANET.node[0].nic.phy80211p decider "<root>...</root> at /home/andreia/Projeto/workspace/biblioteca_veins/simulations//config.xml:34"
par VANET.node[0].nic.phy80211p minPowerLevel -110dBm
attr unit dBm
par VANET.node[0].nic.phy80211p timeRXToTX 0s
attr unit s
par VANET.node[0].nic.phy80211p timeRXToSleep 0s
attr unit s
par VANET.node[0].nic.phy80211p timeTXToRX 0s
attr unit s
par VANET.node[0].nic.phy80211p timeTXToSleep 0s
attr unit s
par VANET.node[0].nic.phy80211p timeSleepToRX 0s
attr unit s
par VANET.node[0].nic.phy80211p timeSleepToTX 0s
attr unit s
par VANET.node[0].nic.phy80211p initialRadioState 0
par VANET.node[0].nic.phy80211p radioMinAtt 1
par VANET.node[0].nic.phy80211p radioMaxAtt 0
par VANET.node[0].nic.phy80211p nbRadioChannels 1
par VANET.node[0].nic.phy80211p initialRadioChannel 0
par VANET.node[0].nic.phy80211p ccaThreshold -65dBm
attr unit dBm
par VANET.node[0].nic.phy80211p collectCollisionStatistics false
par VANET.node[0].nic.phy80211p allowTxDuringRx false
scalar VANET.node[0].nic.phy80211p busyTime 0.0014408844221105
par VANET.node[0].nic.mac1609_4 typename "\"org.car2x.veins.modules.mac.ieee80211p.Mac1609_4\""
par VANET.node[0].nic.mac1609_4 notAffectedByHostState false
par VANET.node[0].nic.mac1609_4 headerLength 0bit
attr unit bit
par VANET.node[0].nic.mac1609_4 address "\"auto\""
par VANET.node[0].nic.mac1609_4 useServiceChannel false
par VANET.node[0].nic.mac1609_4 serviceChannel 1
par VANET.node[0].nic.mac1609_4 bitrate 6000000bps
attr unit bps
par VANET.node[0].nic.mac1609_4 syncOffset 0.0003s
attr unit s
par VANET.node[0].nic.mac1609_4 txPower 20mW
attr unit mW
par VANET.node[0].nic.mac1609_4 queueSize 0
par VANET.node[0].nic.mac1609_4 dot11RTSThreshold 12000bit
attr unit bit
par VANET.node[0].nic.mac1609_4 dot11ShortRetryLimit 7
par VANET.node[0].nic.mac1609_4 dot11LongRetryLimit 4
par VANET.node[0].nic.mac1609_4 ackLength 112bit
attr unit bit
par VANET.node[0].nic.mac1609_4 useAcks false
par VANET.node[0].nic.mac1609_4 frameErrorRate 0
par VANET.node[0].nic.mac1609_4 ackErrorRate 0
scalar VANET.node[0].nic.mac1609_4 ReceivedUnicastPackets 0
scalar VANET.node[0].nic.mac1609_4 ReceivedBroadcasts 2221
scalar VANET.node[0].nic.mac1609_4 SentPackets 200
scalar VANET.node[0].nic.mac1609_4 SentAcknowledgements 0
scalar VANET.node[0].nic.mac1609_4 RetriesExceeded 0
scalar VANET.node[0].nic.mac1609_4 SNIRLostPackets 477
scalar VANET.node[0].nic.mac1609_4 RXTXLostPackets 0
scalar VANET.node[0].nic.mac1609_4 TotalLostPackets 477
scalar VANET.node[0].nic.mac1609_4 DroppedPacketsInMac 0
scalar VANET.node[0].nic.mac1609_4 TooLittleTime 0
scalar VANET.node[0].nic.mac1609_4 TimesIntoBackoff 200
scalar VANET.node[0].nic.mac1609_4 SlotsBackoff 309
scalar VANET.node[0].nic.mac1609_4 NumInternalContention 0
scalar VANET.node[0].nic.mac1609_4 totalBusyTime 0.307864
scalar VANET.node[0].nic.mac1609_4 retriesExceeded:count 0
attr recordingmode count
attr source org_car2x_veins_modules_mac_sigRetriesExceeded
scalar VANET.node[0].nic.mac1609_4 sentAcks:count 0
attr recordingmode count
attr source org_car2x_veins_modules_mac_sigSentAck
scalar VANET.node[0].nic.mac1609_4 sentPackets:count 200
attr recordingmode count
attr source org_car2x_veins_modules_mac_sigSentPacket
scalar VANET.node[0].nic.mac1609_4 collisions:count 0
attr recordingmode count
attr source org_car2x_veins_modules_mac_sigCollision
scalar VANET.node[0].nic.mac1609_4 channelBusy:timeavg 0.0015470552763819
attr recordingmode timeavg
attr source org_car2x_veins_modules_mac_sigChannelBusy
par VANET.node[0].nic typename "\"org.car2x.veins.modules.nic.Nic80211p\""
par VANET.node[0].nic connectionManagerName "\"connectionManager\""
par VANET.node[0].veinsmobility typename "\"org.car2x.veins.modules.mobility.traci.TraCIMobility\""
par VANET.node[0].veinsmobility notAffectedByHostState true
par VANET.node[0].veinsmobility x 0
par VANET.node[0].veinsmobility y 0
par VANET.node[0].veinsmobility z 0
par VANET.node[0].veinsmobility xOrientation 1
par VANET.node[0].veinsmobility yOrientation 0
par VANET.node[0].veinsmobility zOrientation 0
par VANET.node[0].veinsmobility hostPositionOffset 0m
attr unit m
par VANET.node[0].veinsmobility setHostSpeed false
par VANET.node[0].veinsmobility accidentCount 1
par VANET.node[0].veinsmobility accidentStart 73s
attr unit s
par VANET.node[0].veinsmobility accidentDuration 50s
attr unit s
par VANET.node[0].veinsmobility accidentInterval "uniform(30s, 60s)"
attr unit s
scalar VANET.node[0].veinsmobility startTime 1
scalar VANET.node[0].veinsmobility totalTime 199
scalar VANET.node[0].veinsmobility stopTime 200
scalar VANET.node[0].veinsmobility minSpeed 0
scalar VANET.node[0].veinsmobility maxSpeed 13.999815066161
scalar VANET.node[0].veinsmobility totalDistance 1969.0100928116
scalar VANET.node[0].veinsmobility totalCO2Emission 408.59939206877
par VANET.node[0] typename "\"org.car2x.veins.nodes.Car\""
par VANET.node[0] applType "\"biblioteca_veins.CarApp\""
par VANET.node[0] nicType "\"Nic80211p\""
par VANET.node[0] veinsmobilityType "\"org.car2x.veins.modules.mobility.traci.TraCIMobility\""
par VANET.node[1].appl typename "\"biblioteca_veins.CarApp\""
par VANET.node[1].appl headerLength 80bit
attr unit bit
par VANET.node[1].appl sendBeacons true
par VANET.node[1].appl beaconLengthBits 256bit
attr unit bit
par VANET.node[1].appl beaconUserPriority 7
par VANET.node[1].appl beaconInterval 1s
attr unit s
par VANET.node[1].appl dataLengthBits 1024bit
attr unit bit
par VANET.node[1].appl dataOnSch false
par VANET.node[1].appl dataUserPriority 7
par VANET.node[1].appl avoidBeaconSynchronization true
par VANET.node[1].appl sendWSA false
par VANET.node[1].appl wsaLengthBits 250bit
attr unit bit
par VANET.node[1].appl wsaInterval 1s
attr unit s
scalar VANET.node[1].appl generatedWSMs 1
scalar VANET.node[1].appl receivedWSMs 27
scalar VANET.node[1].appl generatedBSMs 196
scalar VANET.node[1].appl receivedBSMs 2260
scalar VANET.node[1].appl generatedWSAs 0
scalar VANET.node[1].appl receivedWSAs 0
par VANET.node[1].nic.phy80211p typename "\"org.car2x.veins.modules.phy.PhyLayer80211p\""
par VANET.node[1].nic.phy80211p recordStats false
par VANET.node[1].nic.phy80211p usePropagationDelay true
par VANET.node[1].nic.phy80211p noiseFloor -98dBm
attr unit dBm
par VANET.node[1].nic.phy80211p useNoiseFloor true
par VANET.node[1].nic.phy80211p antenna "<Antenna type=\"SampledAntenna1D\" id=\"monopole\">...</Antenna> at /home/andreia/Projeto/workspace/biblioteca_veins/simulations//antenna.xml:35"
par VANET.node[1].nic.phy80211p antennaOffsetX 0m
attr unit m
par VANET.node[1].nic.phy80211p antennaOffsetY 0m
attr unit m
par VANET.node[1].nic.phy80211p antennaOffsetZ 1.895m
attr unit m
par VANET.node[1].nic.phy80211p antennaOffsetYaw 0rad
attr unit rad
par VANET.node[1].nic.phy80211p analogueModels "<root>...</root> at /home/andreia/Projeto/workspace/biblioteca_veins/simulations//config.xml:34"
par VANET.node[1].nic.phy80211p decider "<root>...</root> at /home/andreia/Projeto/workspace/biblioteca_veins/simulations//config.xml:34"
par VANET.node[1].nic.phy80211p minPowerLevel -110dBm
attr unit dBm
par VANET.node[1].nic.phy80211p timeRXToTX 0s
attr unit s
par VANET.node[1].nic.phy80211p timeRXToSleep 0s
attr unit s
par VANET.node[1].nic.phy80211p timeTXToRX 0s
attr unit s
par VANET.node[1].nic.phy80211p timeTXToSleep 0s
attr unit s
par VANET.node[1].nic.phy80211p timeSleepToRX 0s
attr unit s
par VANET.node[1].nic.phy80211p timeSleepToTX 0s
attr unit s
par VANET.node[1].nic.phy80211p initialRadioState 0
par VANET.node[1].nic.phy80211p radioMinAtt 1
par VANET.node[1].nic.phy80211p radioMaxAtt 0
par VANET.node[1].nic.phy80211p nbRadioChannels 1
par VANET.node[1].nic.phy80211p initialRadioChannel 0
par VANET.node[1].nic.phy80211p ccaThreshold -65dBm
attr unit dBm
par VANET.node[1].nic.phy80211p collectCollisionStatistics false
par VANET.node[1].nic.phy80211p allowTxDuringRx false
scalar VANET.node[1].nic.phy80211p busyTime 0.0014990204081632
par VANET.node[1].nic.mac1609_4 typename "\"org.car2x.veins.modules.mac.ieee80211p.Mac1609_4\""
par VANET.node[1].nic.mac1609_4 notAffectedByHostState false
par VANET.node[1].nic.mac1609_4 headerLength 0bit
attr unit bit
par VANET.node[1].nic.mac1609_4 address "\"auto\""
par VANET.node[1].nic.mac1609_4 useServiceChannel false
par VANET.node[1].nic.mac1609_4 serviceChannel 1
par VANET.node[1].nic.mac1609_4 bitrate 6000000bps
attr unit bps
par VANET.node[1].nic.mac1609_4 syncOffset 0.0003s
attr unit s
par VANET.node[1].nic.mac1609_4 txPower 20mW
attr unit mW
par VANET.node[1].nic.mac1609_4 queueSize 0
par VANET.node[1].nic.mac1609_4 dot11RTSThreshold 12000bit
attr unit bit
par VANET.node[1].nic.mac1609_4 dot11ShortRetryLimit 7
par VANET.node[1].nic.mac1609_4 dot11LongRetryLimit 4
par VANET.node[1].nic.mac1609_4 ackLength 112bit
attr unit bit
par VANET.node[1].nic.mac1609_4 useAcks false
par VANET.node[1].nic.mac1609_4 frameErrorRate 0
par VANET.node[1].nic.mac1609_4 ackErrorRate 0
scalar VANET.node[1].nic.mac1609_4 ReceivedUnicastPackets 0
scalar VANET.node[1].nic.mac1609_4 ReceivedBroadcasts 2287
scalar VANET.node[1].nic.mac1609_4 SentPackets 197
scalar VANET.node[1].nic.mac1609_4 SentAcknowledgements 0
scalar VANET.node[1].nic.mac1609_4 RetriesExceeded 0
scalar VANET.node[1].nic.mac1609_4 SNIRLostPackets 479
scalar VANET.node[1].nic.mac1609_4 RXTXLostPackets 0
scalar VANET.node[1].nic.mac1609_4 TotalLostPackets 479
scalar VANET.node[1].nic.mac1609_4 DroppedPacketsInMac 0
scalar VANET.node[1].nic.mac1609_4 TooLittleTime 0
scalar VANET.node[1].nic.mac1609_4 TimesIntoBackoff 197
scalar VANET.node[1].nic.mac1609_4 SlotsBackoff 297
scalar VANET.node[1].nic.mac1609_4 NumInternalContention 0
scalar VANET.node[1].nic.mac1609_4 totalBusyTime 0.314621
scalar VANET.node[1].nic.mac1609_4 retriesExceeded:count 0
attr recordingmode count
attr source org_car2x_veins_modules_mac_sigRetriesExceeded
scalar VANET.node[1].nic.mac1609_4 sentAcks:count 0
attr recordingmode count
attr source org_car2x_veins_modules_mac_sigSentAck
scalar VANET.node[1].nic.mac1609_4 sentPackets:count 197
attr recordingmode count
attr source org_car2x_veins_modules_mac_sigSentPacket
scalar VANET.node[1].nic.mac1609_4 collisions:count 0
attr recordingmode count
attr source org_car2x_veins_modules_mac_sigCollision
scalar VANET.node[1].nic.mac1609_4 channelBusy:timeavg 0.0016052091836734
attr recordingmode timeavg
attr source org_car2x_veins_modules_mac_sigChannelBusy
par VANET.node[1].nic typename "\"org.car2x.veins.modules.nic.Nic80211p\""
par VANET.node[1].nic connectionManagerName "\"connectionManager\""
par VANET.node[1].veinsmobility typename "\"org.car2x.veins.modules.mobility.traci.TraCIMobility\""
par VANET.node[1].veinsmobility notAffectedByHostState true
par VANET.node[1].veinsmobility x 0
par VANET.node[1].veinsmobility y 0
par VANET.node[1].veinsmobility z 0
par VANET.node[1].veinsmobility xOrientation 1
par VANET.node[1].veinsmobility yOrientation 0
par VANET.node[1].veinsmobility zOrientation 0
par VANET.node[1].veinsmobility hostPositionOffset 0m
attr unit m
par VANET.node[1].veinsmobility setHostSpeed false
par VANET.node[1].veinsmobility accidentCount 0
par VANET.node[1].veinsmobility accidentStart 55.0824s
attr unit s
par VANET.node[1].veinsmobility accidentDuration "uniform(30s, 60s)"
attr unit s
par VANET.node[1].veinsmobility accidentInterval "uniform(30s, 60s)"
attr unit s
scalar VANET.node[1].veinsmobility startTime 4
scalar VANET.node[1].veinsmobility totalTime 196
scalar VANET.node[1].veinsmobility stopTime 200
scalar VANET.node[1].veinsmobility minSpeed 0
scalar VANET.node[1].veinsmobility maxSpeed 13.999179182528
scalar VANET.node[1].veinsmobility totalDistance 1953.3411333935
scalar VANET.node[1].veinsmobility totalCO2Emission 402.72089862179
par VANET.node[1] typename "\"org.car2x.veins.nodes.Car\""
par VANET.node[1] applType "\"biblioteca_veins.CarApp\""
par VANET.node[1] nicType "\"Nic80211p\""
par VANET.node[1] veinsmobilityType "\"org.car2x.veins.modules.mobility.traci.TraCIMobility\""
par VANET.node[2].appl typename "\"biblioteca_veins.CarApp\""
par VANET.node[2].appl headerLength 80bit
attr unit bit
par VANET.node[2].appl sendBeacons true
par VANET.node[2].appl beaconLengthBits 256bit
attr unit bit
par VANET.node[2].appl beaconUserPriority 7
par VANET.node[2].appl beaconInterval 1s
attr unit s
par VANET.node[2].appl dataLengthBits 1024bit
attr unit bit
par VANET.node[2].appl dataOnSch false
par VANET.node[2].appl dataUserPriority 7
par VANET.node[2].appl avoidBeaconSynchronization true
par VANET.node[2].appl sendWSA false
par VANET.node[2].appl wsaLengthBits 250bit
attr unit bit
par VANET.node[2].appl wsaInterval 1s
attr unit s
scalar VANET.node[2].appl generatedWSMs 1
scalar VANET.node[2].appl receivedWSMs 30
scalar VANET.node[2].appl generatedBSMs 193
scalar VANET.node[2].appl receivedBSMs 2317
scalar VANET.node[2].appl generatedWSAs 0
scalar VANET.node[2].appl receivedWSAs 0
par VANET.node[2].nic.phy80211p typename "\"org.car2x.veins.modules.phy.PhyLayer80211p\""
par VANET.node[2].nic.phy80211p recordStats false
par VANET.node[2].nic.phy80211p usePropagationDelay true
par VANET.node[2].nic.phy80211p noiseFloor -98dBm
attr unit dBm
par VANET.node[2].nic.phy80211p useNoiseFloor true
par VANET.node[2].nic.phy80211p antenna "<Antenna type=\"SampledAntenna1D\" id=\"monopole\">...</Antenna> at /home/andreia/Projeto/workspace/biblioteca_veins/simulations//antenna.xml:35"
par VANET.node[2].nic.phy80211p antennaOffsetX 0m
attr unit m
par VANET.node[2].nic.phy80211p antennaOffsetY 0m
attr unit m
par VANET.node[2].nic.phy80211p antennaOffsetZ 1.895m
attr unit m
par VANET.node[2].nic.phy80211p antennaOffsetYaw 0rad
attr unit rad
par VANET.node[2].nic.phy80211p analogueModels "<root>...</root> at /home/andreia/Projeto/workspace/biblioteca_veins/simulations//config.xml:34"
par VANET.node[2].nic.phy80211p decider "<root>...</root> at /home/andreia/Projeto/workspace/biblioteca_veins/simulations//config.xml:34"
par VANET.node[2].nic.phy80211p minPowerLevel -110dBm
attr unit dBm
par VANET.node[2].nic.phy80211p timeRXToTX 0s
attr unit s
par VANET.node[2].nic.phy80211p timeRXToSleep 0s
attr unit s
par VANET.node[2].nic.phy80211p timeTXToRX 0s
attr unit s
par VANET.node[2].nic.phy80211p timeTXToSleep 0s
attr unit s
par VANET.node[2].nic.phy80211p timeSleepToRX 0s
attr unit s
par VANET.node[2].nic.phy80211p timeSleepToTX 0s
attr unit s
par VANET.node[2].nic.phy80211p initialRadioState 0
par VANET.node[2].nic.phy80211p radioMinAtt 1
par VANET.node[2].nic.phy80211p radioMaxAtt 0
par VANET.node[2].nic.phy80211p nbRadioChannels 1
par VANET.node[2].nic.phy80211p initialRadioChannel 0
par VANET.node[2].nic.phy80211p ccaThreshold -65dBm
attr unit dBm
par VANET.node[2].nic.phy80211p collectCollisionStatistics false
par VANET.node[2].nic.phy80211p allowTxDuringRx false
scalar VANET.node[2].nic.phy80211p busyTime 0.001544414507772
par VANET.node[2].nic.mac1609_4 typename "\"org.car2x.veins.modules.mac.ieee80211p.Mac1609_4\""
par VANET.node[2].nic.mac1609_4 notAffectedByHostState false
par VANET.node[2].nic.mac1609_4 headerLength 0bit
attr unit bit
par VANET.node[2].nic.mac1609_4 address "\"auto\""
par VANET.node[2].nic.mac1609_4 useServiceChannel false
par VANET.node[2].nic.mac1609_4 serviceChannel 1
par VANET.node[2].nic.mac1609_4 bitrate 6000000bps
attr unit bps
par VANET.node[2].nic.mac1609_4 syncOffset 0.0003s
attr unit s
par VANET.node[2].nic.mac1609_4 txPower 20mW
attr unit mW
par VANET.node[2].nic.mac1609_4 queueSize 0
par VANET.node[2].nic.mac1609_4 dot11RTSThreshold 12000bit
attr unit bit
par VANET.node[2].nic.mac1609_4 dot11ShortRetryLimit 7
par VANET.node[2].nic.mac1609_4 dot11LongRetryLimit 4
par VANET.node[2].nic.mac1609_4 ackLength 112bit
attr unit bit
par VANET.node[2].nic.mac1609_4 useAcks false
par VANET.node[2].nic.mac1609_4 frameErrorRate 0
par VANET.node[2].nic.mac1609_4 ackErrorRate 0
scalar VANET.node[2].nic.mac1609_4 ReceivedUnicastPackets 0
scalar VANET.node[2].nic.mac1609_4 ReceivedBroadcasts 2347
scalar VANET.node[2].nic.mac1609_4 SentPackets 194
scalar VANET.node[2].nic.mac1609_4 SentAcknowledgements 0
scalar VANET.node[2].nic.mac1609_4 RetriesExceeded 0
scalar VANET.node[2].nic.mac1609_4 SNIRLostPackets 460
scalar VANET.node[2].nic.mac1609_4 RXTXLostPackets 0
scalar VANET.node[2].nic.mac1609_4 TotalLostPackets 460
scalar VANET.node[2].nic.mac1609_4 DroppedPacketsInMac 0
scalar VANET.node[2].nic.mac1609_4 TooLittleTime 0
scalar VANET.node[2].nic.mac1609_4 TimesIntoBackoff 194
scalar VANET.node[2].nic.mac1609_4 SlotsBackoff 267
scalar VANET.node[2].nic.mac1609_4 NumInternalContention 0
scalar VANET.node[2].nic.mac1609_4 totalBusyTime 0.31857
scalar VANET.node[2].nic.mac1609_4 retriesExceeded:count 0
attr recordingmode count
attr source org_car2x_veins_modules_mac_sigRetriesExceeded
scalar VANET.node[2].nic.mac1609_4 sentAcks:count 0
attr recordingmode count
attr source org_car2x_veins_modules_mac_sigSentAck
scalar VANET.node[2].nic.mac1609_4 sentPackets:count 194
attr recordingmode count
attr source org_car2x_veins_modules_mac_sigSentPacket
scalar VANET.node[2].nic.mac1609_4 collisions:count 0
attr recordingmode count
attr source org_car2x_veins_modules_mac_sigCollision
scalar VANET.node[2].nic.mac1609_4 channelBusy:timeavg 0.001650621761658
attr recordingmode timeavg
attr source org_car2x_veins_modules_mac_sigChannelBusy
par VANET.node[2].nic typename "\"org.car2x.veins.modules.nic.Nic80211p\""
par VANET.node[2].nic connectionManagerName "\"connectionManager\""
par VANET.node[2].veinsmobility typename "\"org.car2x.veins.modules.mobility.traci.TraCIMobility\""
par VANET.node[2].veinsmobility notAffectedByHostState true
par VANET.node[2].veinsmobility x 0
par VANET.node[2].veinsmobility y 0
par VANET.node[2].veinsmobility z 0
par VANET.node[2].veinsmobility xOrientation 1
par VANET.node[2].veinsmobility yOrientation 0
par VANET.node[2].veinsmobility zOrientation 0
par VANET.node[2].veinsmobility hostPositionOffset 0m
attr unit m
par VANET.node[2].veinsmobility setHostSpeed false
par VANET.node[2].veinsmobility accidentCount 0
par VANET.node[2].veinsmobility accidentStart 50.9289s
attr unit s
par VANET.node[2].veinsmobility accidentDuration "uniform(30s, 60s)"
attr unit s
par VANET.node[2].veinsmobility accidentInterval "uniform(30s, 60s)"
attr unit s
scalar VANET.node[2].veinsmobility startTime 7
scalar VANET.node[2].veinsmobility totalTime 193
scalar VANET.node[2].veinsmobility stopTime 200
scalar VANET.node[2].veinsmobility minSpeed 0
scalar VANET.node[2].veinsmobility maxSpeed 13.999785439738
scalar VANET.node[2].veinsmobility totalDistance 1938.9833078235
scalar VANET.node[2].veinsmobility totalCO2Emission 398.4169284072
par VANET.node[2] typename "\"org.car2x.veins.nodes.Car\""
par VANET.node[2] applType "\"biblioteca_veins.CarApp\""
par VANET.node[2] nicType "\"Nic80211p\""
par VANET.node[2] veinsmobilityType "\"org.car2x.veins.modules.mobility.traci.TraCIMobility\""
par VANET.node[3].appl typename "\"biblioteca_veins.CarApp\""
par VANET.node[3].appl headerLength 80bit
attr unit bit
par VANET.node[3].appl sendBeacons true
par VANET.node[3].appl beaconLengthBits 256bit
attr unit bit
par VANET.node[3].appl beaconUserPriority 7
par VANET.node[3].appl beaconInterval 1s
attr unit s
par VANET.node[3].appl dataLengthBits 1024bit
attr unit bit
par VANET.node[3].appl dataOnSch false
par VANET.node[3].appl dataUserPriority 7
par VANET.node[3].appl avoidBeaconSynchronization true
par VANET.node[3].appl sendWSA false
par VANET.node[3].appl wsaLengthBits 250bit
attr unit bit
par VANET.node[3].appl wsaInterval 1s
attr unit s
scalar VANET.node[3].appl generatedWSMs 1
scalar VANET.node[3].appl receivedWSMs 36
scalar VANET.node[3].appl generatedBSMs 190
scalar VANET.node[3].appl receivedBSMs 2362
scalar VANET.node[3].appl generatedWSAs 0
scalar VANET.node[3].appl receivedWSAs 0
par VANET.node[3].nic.phy80211p typename "\"org.car2x.veins.modules.phy.PhyLayer80211p\""
par VANET.node[3].nic.phy80211p recordStats false
par VANET.node[3].nic.phy80211p usePropagationDelay true
par VANET.node[3].nic.phy80211p noiseFloor -98dBm
attr unit dBm
par VANET.node[3].nic.phy80211p useNoiseFloor true
par VANET.node[3].nic.phy80211p antenna "<Antenna type=\"SampledAntenna1D\" id=\"monopole\">...</Antenna> at /home/andreia/Projeto/workspace/biblioteca_veins/simulations//antenna.xml:35"
par VANET.node[3].nic.phy80211p antennaOffsetX 0m
attr unit m
par VANET.node[3].nic.phy80211p antennaOffsetY 0m
attr unit m
par VANET.node[3].nic.phy80211p antennaOffsetZ 1.895m
attr unit m
par VANET.node[3].nic.phy80211p antennaOffsetYaw 0rad
attr unit rad
par VANET.node[3].nic.phy80211p analogueModels "<root>...</root> at /home/andreia/Projeto/workspace/biblioteca_veins/simulations//config.xml:34"
par VANET.node[3].nic.phy80211p decider "<root>...</root> at /home/andreia/Projeto/workspace/biblioteca_veins/simulations//config.xml:34"
par VANET.node[3].nic.phy80211p minPowerLevel -110dBm
attr unit dBm
par VANET.node[3].nic.phy80211p timeRXToTX 0s
attr unit s
par VANET.node[3].nic.phy80211p timeRXToSleep 0s
attr unit s
par VANET.node[3].nic.phy80211p timeTXToRX 0s
attr unit s
par VANET.node[3].nic.phy80211p timeTXToSleep 0s
attr unit s
par VANET.node[3].nic.phy80211p timeSleepToRX 0s
attr unit s
par VANET.node[3].nic.phy80211p timeSleepToTX 0s
attr unit s
par VANET.node[3].nic.phy80211p initialRadioState 0
par VANET.node[3].nic.phy80211p radioMinAtt 1
par VANET.node[3].nic.phy80211p radioMaxAtt 0
par VANET.node[3].nic.phy80211p nbRadioChannels 1
par VANET.node[3].nic.phy80211p initialRadioChannel 0
par VANET.node[3].nic.phy80211p ccaThreshold -65dBm
attr unit dBm
par VANET.node[3].nic.phy80211p collectCollisionStatistics false
par VANET.node[3].nic.phy80211p allowTxDuringRx false
scalar VANET.node[3].nic.phy80211p busyTime 0.0015961684210526
par VANET.node[3].nic.mac1609_4 typename "\"org.car2x.veins.modules.mac.ieee80211p.Mac1609_4\""
par VANET.node[3].nic.mac1609_4 notAffectedByHostState false
par VANET.node[3].nic.mac1609_4 headerLength 0bit
attr unit bit
par VANET.node[3].nic.mac1609_4 address "\"auto\""
par VANET.node[3].nic.mac1609_4 useServiceChannel false
par VANET.node[3].nic.mac1609_4 serviceChannel 1
par VANET.node[3].nic.mac1609_4 bitrate 6000000bps
attr unit bps
par VANET.node[3].nic.mac1609_4 syncOffset 0.0003s
attr unit s
par VANET.node[3].nic.mac1609_4 txPower 20mW
attr unit mW
par VANET.node[3].nic.mac1609_4 queueSize 0
par VANET.node[3].nic.mac1609_4 dot11RTSThreshold 12000bit
attr unit bit
par VANET.node[3].nic.mac1609_4 dot11ShortRetryLimit 7
par VANET.node[3].nic.mac1609_4 dot11LongRetryLimit 4
par VANET.node[3].nic.mac1609_4 ackLength 112bit
attr unit bit
par VANET.node[3].nic.mac1609_4 useAcks false
par VANET.node[3].nic.mac1609_4 frameErrorRate 0
par VANET.node[3].nic.mac1609_4 ackErrorRate 0
scalar VANET.node[3].nic.mac1609_4 ReceivedUnicastPackets 0
scalar VANET.node[3].nic.mac1609_4 ReceivedBroadcasts 2398
scalar VANET.node[3].nic.mac1609_4 SentPackets 191
scalar VANET.node[3].nic.mac1609_4 SentAcknowledgements 0
scalar VANET.node[3].nic.mac1609_4 RetriesExceeded 0
scalar VANET.node[3].nic.mac1609_4 SNIRLostPackets 459
scalar VANET.node[3].nic.mac1609_4 RXTXLostPackets 0
scalar VANET.node[3].nic.mac1609_4 TotalLostPackets 459
scalar VANET.node[3].nic.mac1609_4 DroppedPacketsInMac 0
scalar VANET.node[3].nic.mac1609_4 TooLittleTime 0
scalar VANET.node[3].nic.mac1609_4 TimesIntoBackoff 191
scalar VANET.node[3].nic.mac1609_4 SlotsBackoff 305
scalar VANET.node[3].nic.mac1609_4 NumInternalContention 0
scalar VANET.node[3].nic.mac1609_4 totalBusyTime 0.323455
scalar VANET.node[3].nic.mac1609_4 retriesExceeded:count 0
attr recordingmode count
attr source org_car2x_veins_modules_mac_sigRetriesExceeded
scalar VANET.node[3].nic.mac1609_4 sentAcks:count 0
attr recordingmode count
attr source org_car2x_veins_modules_mac_sigSentAck
scalar VANET.node[3].nic.mac1609_4 sentPackets:count 191
attr recordingmode count
attr source org_car2x_veins_modules_mac_sigSentPacket
scalar VANET.node[3].nic.mac1609_4 collisions:count 0
attr recordingmode count
attr source org_car2x_veins_modules_mac_sigCollision
scalar VANET.node[3].nic.mac1609_4 channelBusy:timeavg 0.0017023947368421
attr recordingmode timeavg
attr source org_car2x_veins_modules_mac_sigChannelBusy
par VANET.node[3].nic typename "\"org.car2x.veins.modules.nic.Nic80211p\""
par VANET.node[3].nic connectionManagerName "\"connectionManager\""
par VANET.node[3].veinsmobility typename "\"org.car2x.veins.modules.mobility.traci.TraCIMobility\""
par VANET.node[3].veinsmobility notAffectedByHostState true
par VANET.node[3].veinsmobility x 0
par VANET.node[3].veinsmobility y 0
par VANET.node[3].veinsmobility z 0
par VANET.node[3].veinsmobility xOrientation 1
par VANET.node[3].veinsmobility yOrientation 0
par VANET.node[3].veinsmobility zOrientation 0
par VANET.node[3].veinsmobility hostPositionOffset 0m
attr unit m
par VANET.node[3].veinsmobility setHostSpeed false
par VANET.node[3].veinsmobility accidentCount 0
par VANET.node[3].veinsmobility accidentStart 34.3933s
attr unit s
par VANET.node[3].veinsmobility accidentDuration "uniform(30s, 60s)"
attr unit s
par VANET.node[3].veinsmobility accidentInterval "uniform(30s, 60s)"
attr unit s
scalar VANET.node[3].veinsmobility startTime 10
scalar VANET.node[3].veinsmobility totalTime 190
scalar VANET.node[3].veinsmobility stopTime 200
scalar VANET.node[3].veinsmobility minSpeed 0
scalar VANET.node[3].veinsmobility maxSpeed 13.999869057706
scalar VANET.node[3].veinsmobility totalDistance 1923.2885873526
scalar VANET.node[3].veinsmobility totalCO2Emission 395.43815059845
par VANET.node[3] typename "\"org.car2x.veins.nodes.Car\""
par VANET.node[3] applType "\"biblioteca_veins.CarApp\""
par VANET.node[3] nicType "\"Nic80211p\""
par VANET.node[3] veinsmobilityType "\"org.car2x.veins.modules.mobility.traci.TraCIMobility\""
par VANET.node[4].appl typename "\"biblioteca_veins.CarApp\""
par VANET.node[4].appl headerLength 80bit
attr unit bit
par VANET.node[4].appl sendBeacons true
par VANET.node[4].appl beaconLengthBits 256bit
attr unit bit
par VANET.node[4].appl beaconUserPriority 7
par VANET.node[4].appl beaconInterval 1s
attr unit s
par VANET.node[4].appl dataLengthBits 1024bit
attr unit bit
par VANET.node[4].appl dataOnSch false
par VANET.node[4].appl dataUserPriority 7
par VANET.node[4].appl avoidBeaconSynchronization true
par VANET.node[4].appl sendWSA false
par VANET.node[4].appl wsaLengthBits 250bit
attr unit bit
par VANET.node[4].appl wsaInterval 1s
attr unit s
scalar VANET.node[4].appl generatedWSMs 1
scalar VANET.node[4].appl receivedWSMs 36
scalar VANET.node[4].appl generatedBSMs 187
scalar VANET.node[4].appl receivedBSMs 2448
scalar VANET.node[4].appl generatedWSAs 0
scalar VANET.node[4].appl receivedWSAs 0
par VANET.node[4].nic.phy80211p typename "\"org.car2x.veins.modules.phy.PhyLayer80211p\""
par VANET.node[4].nic.phy80211p recordStats false
par VANET.node[4].nic.phy80211p usePropagationDelay true
par VANET.node[4].nic.phy80211p noiseFloor -98dBm
attr unit dBm
par VANET.node[4].nic.phy80211p useNoiseFloor true
par VANET.node[4].nic.phy80211p antenna "<Antenna type=\"SampledAntenna1D\" id=\"monopole\">...</Antenna> at /home/andreia/Projeto/workspace/biblioteca_veins/simulations//antenna.xml:35"
par VANET.node[4].nic.phy80211p antennaOffsetX 0m
attr unit m
par VANET.node[4].nic.phy80211p antennaOffsetY 0m
attr unit m
par VANET.node[4].nic.phy80211p antennaOffsetZ 1.895m
attr unit m
par VANET.node[4].nic.phy80211p antennaOffsetYaw 0rad
attr unit rad
par VANET.node[4].nic.phy80211p analogueModels "<root>...</root> at /home/andreia/Projeto/workspace/biblioteca_veins/simulations//config.xml:34"
par VANET.node[4].nic.phy80211p decider "<root>...</root> at /home/andreia/Projeto/workspace/biblioteca_veins/simulations//config.xml:34"
par VANET.node[4].nic.phy80211p minPowerLevel -110dBm
attr unit dBm
par VANET.node[4].nic.phy80211p timeRXToTX 0s
attr unit s
par VANET.node[4].nic.phy80211p timeRXToSleep 0s
attr unit s
par VANET.node[4].nic.phy80211p timeTXToRX 0s
attr unit s
par VANET.node[4].nic.phy80211p timeTXToSleep 0s
attr unit s
par VANET.node[4].nic.phy80211p timeSleepToRX 0s
attr unit s
par VANET.node[4].nic.phy80211p timeSleepToTX 0s
attr unit s
par VANET.node[4].nic.phy80211p initialRadioState 0
par VANET.node[4].nic.phy80211p radioMinAtt 1
par VANET.node[4].nic.phy80211p radioMaxAtt 0
par VANET.node[4].nic.phy80211p nbRadioChannels 1
par VANET.node[4].nic.phy80211p initialRadioChannel 0
par VANET.node[4].nic.phy80211p ccaThreshold -65dBm
attr unit dBm
par VANET.node[4].nic.phy80211p collectCollisionStatistics false
par VANET.node[4].nic.phy80211p allowTxDuringRx false
scalar VANET.node[4].nic.phy80211p busyTime 0.001659037433155
par VANET.node[4].nic.mac1609_4 typename "\"org.car2x.veins.modules.mac.ieee80211p.Mac1609_4\""
par VANET.node[4].nic.mac1609_4 notAffectedByHostState false
par VANET.node[4].nic.mac1609_4 headerLength 0bit
attr unit bit
par VANET.node[4].nic.mac1609_4 address "\"auto\""
par VANET.node[4].nic.mac1609_4 useServiceChannel false
par VANET.node[4].nic.mac1609_4 serviceChannel 1
par VANET.node[4].nic.mac1609_4 bitrate 6000000bps
attr unit bps
par VANET.node[4].nic.mac1609_4 syncOffset 0.0003s
attr unit s
par VANET.node[4].nic.mac1609_4 txPower 20mW
attr unit mW
par VANET.node[4].nic.mac1609_4 queueSize 0
par VANET.node[4].nic.mac1609_4 dot11RTSThreshold 12000bit
attr unit bit
par VANET.node[4].nic.mac1609_4 dot11ShortRetryLimit 7
par VANET.node[4].nic.mac1609_4 dot11LongRetryLimit 4
par VANET.node[4].nic.mac1609_4 ackLength 112bit
attr unit bit
par VANET.node[4].nic.mac1609_4 useAcks false
par VANET.node[4].nic.mac1609_4 frameErrorRate 0
par VANET.node[4].nic.mac1609_4 ackErrorRate 0
scalar VANET.node[4].nic.mac1609_4 ReceivedUnicastPackets 0
scalar VANET.node[4].nic.mac1609_4 ReceivedBroadcasts 2484
scalar VANET.node[4].nic.mac1609_4 SentPackets 188
scalar VANET.node[4].nic.mac1609_4 SentAcknowledgements 0
scalar VANET.node[4].nic.mac1609_4 RetriesExceeded 0
scalar VANET.node[4].nic.mac1609_4 SNIRLostPackets 440
scalar VANET.node[4].nic.mac1609_4 RXTXLostPackets 0
scalar VANET.node[4].nic.mac1609_4 TotalLostPackets 440
scalar VANET.node[4].nic.mac1609_4 DroppedPacketsInMac 0
scalar VANET.node[4].nic.mac1609_4 TooLittleTime 0
scalar VANET.node[4].nic.mac1609_4 TimesIntoBackoff 188
scalar VANET.node[4].nic.mac1609_4 SlotsBackoff 316
scalar VANET.node[4].nic.mac1609_4 NumInternalContention 0
scalar VANET.node[4].nic.mac1609_4 totalBusyTime 0.330108
scalar VANET.node[4].nic.mac1609_4 retriesExceeded:count 0
attr recordingmode count
attr source org_car2x_veins_modules_mac_sigRetriesExceeded
scalar VANET.node[4].nic.mac1609_4 sentAcks:count 0
attr recordingmode count
attr source org_car2x_veins_modules_mac_sigSentAck
scalar VANET.node[4].nic.mac1609_4 sentPackets:count 188
attr recordingmode count
attr source org_car2x_veins_modules_mac_sigSentPacket
scalar VANET.node[4].nic.mac1609_4 collisions:count 0
attr recordingmode count
attr source org_car2x_veins_modules_mac_sigCollision
scalar VANET.node[4].nic.mac1609_4 channelBusy:timeavg 0.0017652834224598
attr recordingmode timeavg
attr source org_car2x_veins_modules_mac_sigChannelBusy
par VANET.node[4].nic typename "\"org.car2x.veins.modules.nic.Nic80211p\""
par VANET.node[4].nic connectionManagerName "\"connectionManager\""
par VANET.node[4].veinsmobility typename "\"org.car2x.veins.modules.mobility.traci.TraCIMobility\""
par VANET.node[4].veinsmobility notAffectedByHostState true
par VANET.node[4].veinsmobility x 0
par VANET.node[4].veinsmobility y 0
par VANET.node[4].veinsmobility z 0
par VANET.node[4].veinsmobility xOrientation 1
par VANET.node[4].veinsmobility yOrientation 0
par VANET.node[4].veinsmobility zOrientation 0
par VANET.node[4].veinsmobility hostPositionOffset 0m
attr unit m
par VANET.node[4].veinsmobility setHostSpeed false
par VANET.node[4].veinsmobility accidentCount 0
par VANET.node[4].veinsmobility accidentStart 58.3312s
attr unit s
par VANET.node[4].veinsmobility accidentDuration "uniform(30s, 60s)"
attr unit s
par VANET.node[4].veinsmobility accidentInterval "uniform(30s, 60s)"
attr unit s
scalar VANET.node[4].veinsmobility startTime 13
scalar VANET.node[4].veinsmobility totalTime 187
scalar VANET.node[4].veinsmobility stopTime 200
scalar VANET.node[4].veinsmobility minSpeed 0
scalar VANET.node[4].veinsmobility maxSpeed 13.999156328384
scalar VANET.node[4].veinsmobility totalDistance 1905.1376088455
scalar VANET.node[4].veinsmobility totalCO2Emission 386.22645666892
par VANET.node[4] typename "\"org.car2x.veins.nodes.Car\""
par VANET.node[4] applType "\"biblioteca_veins.CarApp\""
par VANET.node[4] nicType "\"Nic80211p\""
par VANET.node[4] veinsmobilityType "\"org.car2x.veins.modules.mobility.traci.TraCIMobility\""
par VANET.node[5].appl typename "\"biblioteca_veins.CarApp\""
par VANET.node[5].appl headerLength 80bit
attr unit bit
par VANET.node[5].appl sendBeacons true
par VANET.node[5].appl beaconLengthBits 256bit
attr unit bit
par VANET.node[5].appl beaconUserPriority 7
par VANET.node[5].appl beaconInterval 1s
attr unit s
par VANET.node[5].appl dataLengthBits 1024bit
attr unit bit
par VANET.node[5].appl dataOnSch false
par VANET.node[5].appl dataUserPriority 7
par VANET.node[5].appl avoidBeaconSynchronization true
par VANET.node[5].appl sendWSA false
par VANET.node[5].appl wsaLengthBits 250bit
attr unit bit
par VANET.node[5].appl wsaInterval 1s
attr unit s
scalar VANET.node[5].appl generatedWSMs 1
scalar VANET.node[5].appl receivedWSMs 40
scalar VANET.node[5].appl generatedBSMs 184
scalar VANET.node[5].appl receivedBSMs 2471
scalar VANET.node[5].appl generatedWSAs 0
scalar VANET.node[5].appl receivedWSAs 0
par VANET.node[5].nic.phy80211p typename "\"org.car2x.veins.modules.phy.PhyLayer80211p\""
par VANET.node[5].nic.phy80211p recordStats false
par VANET.node[5].nic.phy80211p usePropagationDelay true
par VANET.node[5].nic.phy80211p noiseFloor -98dBm
attr unit dBm
par VANET.node[5].nic.phy80211p useNoiseFloor true
par VANET.node[5].nic.phy80211p antenna "<Antenna type=\"SampledAntenna1D\" id=\"monopole\">...</Antenna> at /home/andreia/Projeto/workspace/biblioteca_veins/simulations//antenna.xml:35"
par VANET.node[5].nic.phy80211p antennaOffsetX 0m
attr unit m
par VANET.node[5].nic.phy80211p antennaOffsetY 0m
attr unit m
par VANET.node[5].nic.phy80211p antennaOffsetZ 1.895m
attr unit m
par VANET.node[5].nic.phy80211p antennaOffsetYaw 0rad
attr unit rad
par VANET.node[5].nic.phy80211p analogueModels "<root>...</root> at /home/andreia/Projeto/workspace/biblioteca_veins/simulations//config.xml:34"
par VANET.node[5].nic.phy80211p decider "<root>...</root> at /home/andreia/Projeto/workspace/biblioteca_veins/simulations//config.xml:34"
par VANET.node[5].nic.phy80211p minPowerLevel -110dBm
attr unit dBm
par VANET.node[5].nic.phy80211p timeRXToTX 0s
attr unit s
par VANET.node[5].nic.phy80211p timeRXToSleep 0s
attr unit s
par VANET.node[5].nic.phy80211p timeTXToRX 0s
attr unit s
par VANET.node[5].nic.phy80211p timeTXToSleep 0s
attr unit s
par VANET.node[5].nic.phy80211p timeSleepToRX 0s
attr unit s
par VANET.node[5].nic.phy80211p timeSleepToTX 0s
attr unit s
par VANET.node[5].nic.phy80211p initialRadioState 0
par VANET.node[5].nic.phy80211p radioMinAtt 1
par VANET.node[5].nic.phy80211p radioMaxAtt 0
par VANET.node[5].nic.phy80211p nbRadioChannels 1
par VANET.node[5].nic.phy80211p initialRadioChannel 0
par VANET.node[5].nic.phy80211p ccaThreshold -65dBm
attr unit dBm
par VANET.node[5].nic.phy80211p collectCollisionStatistics false
par VANET.node[5].nic.phy80211p allowTxDuringRx false
scalar VANET.node[5].nic.phy80211p busyTime 0.0016941304347826
par VANET.node[5].nic.mac1609_4 typename "\"org.car2x.veins.modules.mac.ieee80211p.Mac1609_4\""
par VANET.node[5].nic.mac1609_4 notAffectedByHostState false
par VANET.node[5].nic.mac1609_4 headerLength 0bit
attr unit bit
par VANET.node[5].nic.mac1609_4 address "\"auto\""
par VANET.node[5].nic.mac1609_4 useServiceChannel false
par VANET.node[5].nic.mac1609_4 serviceChannel 1
par VANET.node[5].nic.mac1609_4 bitrate 6000000bps
attr unit bps
par VANET.node[5].nic.mac1609_4 syncOffset 0.0003s
attr unit s
par VANET.node[5].nic.mac1609_4 txPower 20mW
attr unit mW
par VANET.node[5].nic.mac1609_4 queueSize 0
par VANET.node[5].nic.mac1609_4 dot11RTSThreshold 12000bit
attr unit bit
par VANET.node[5].nic.mac1609_4 dot11ShortRetryLimit 7
par VANET.node[5].nic.mac1609_4 dot11LongRetryLimit 4
par VANET.node[5].nic.mac1609_4 ackLength 112bit
attr unit bit
par VANET.node[5].nic.mac1609_4 useAcks false
par VANET.node[5].nic.mac1609_4 frameErrorRate 0
par VANET.node[5].nic.mac1609_4 ackErrorRate 0
scalar VANET.node[5].nic.mac1609_4 ReceivedUnicastPackets 0
scalar VANET.node[5].nic.mac1609_4 ReceivedBroadcasts 2511
scalar VANET.node[5].nic.mac1609_4 SentPackets 185
scalar VANET.node[5].nic.mac1609_4 SentAcknowledgements 0
scalar VANET.node[5].nic.mac1609_4 RetriesExceeded 0
scalar VANET.node[5].nic.mac1609_4 SNIRLostPackets 426
scalar VANET.node[5].nic.mac1609_4 RXTXLostPackets 0
scalar VANET.node[5].nic.mac1609_4 TotalLostPackets 426
scalar VANET.node[5].nic.mac1609_4 DroppedPacketsInMac 0
scalar VANET.node[5].nic.mac1609_4 TooLittleTime 0
scalar VANET.node[5].nic.mac1609_4 TimesIntoBackoff 185
scalar VANET.node[5].nic.mac1609_4 SlotsBackoff 280
scalar VANET.node[5].nic.mac1609_4 NumInternalContention 0
scalar VANET.node[5].nic.mac1609_4 totalBusyTime 0.331273
scalar VANET.node[5].nic.mac1609_4 retriesExceeded:count 0
attr recordingmode count
attr source org_car2x_veins_modules_mac_sigRetriesExceeded
scalar VANET.node[5].nic.mac1609_4 sentAcks:count 0
attr recordingmode count
attr source org_car2x_veins_modules_mac_sigSentAck
scalar VANET.node[5].nic.mac1609_4 sentPackets:count 185
attr recordingmode count
attr source org_car2x_veins_modules_mac_sigSentPacket
scalar VANET.node[5].nic.mac1609_4 collisions:count 0
attr recordingmode count
attr source org_car2x_veins_modules_mac_sigCollision
scalar VANET.node[5].nic.mac1609_4 channelBusy:timeavg 0.0018003967391304
attr recordingmode timeavg
attr source org_car2x_veins_modules_mac_sigChannelBusy
par VANET.node[5].nic typename "\"org.car2x.veins.modules.nic.Nic80211p\""
par VANET.node[5].nic connectionManagerName "\"connectionManager\""
par VANET.node[5].veinsmobility typename "\"org.car2x.veins.modules.mobility.traci.TraCIMobility\""
par VANET.node[5].veinsmobility notAffectedByHostState true
par VANET.node[5].veinsmobility x 0
par VANET.node[5].veinsmobility y 0
par VANET.node[5].veinsmobility z 0
par VANET.node[5].veinsmobility xOrientation 1
par VANET.node[5].veinsmobility yOrientation 0
par VANET.node[5].veinsmobility zOrientation 0
par VANET.node[5].veinsmobility hostPositionOffset 0m
attr unit m
par VANET.node[5].veinsmobility setHostSpeed false
par VANET.node[5].veinsmobility accidentCount 0
par VANET.node[5].veinsmobility accidentStart 43.7554s
attr unit s
par VANET.node[5].veinsmobility accidentDuration "uniform(30s, 60s)"
attr unit s
par VANET.node[5].veinsmobility accidentInterval "uniform(30s, 60s)"
attr unit s
scalar VANET.node[5].veinsmobility startTime 16
scalar VANET.node[5].veinsmobility totalTime 184
scalar VANET.node[5].veinsmobility stopTime 200
scalar VANET.node[5].veinsmobility minSpeed 0
scalar VANET.node[5].veinsmobility maxSpeed 13.999475875418
scalar VANET.node[5].veinsmobility totalDistance 1884.2686919177
scalar VANET.node[5].veinsmobility totalCO2Emission 385.57967772393
par VANET.node[5] typename "\"org.car2x.veins.nodes.Car\""
par VANET.node[5] applType "\"biblioteca_veins.CarApp\""
par VANET.node[5] nicType "\"Nic80211p\""
par VANET.node[5] veinsmobilityType "\"org.car2x.veins.modules.mobility.traci.TraCIMobility\""
par VANET.node[6].appl typename "\"biblioteca_veins.CarApp\""
par VANET.node[6].appl headerLength 80bit
attr unit bit
par VANET.node[6].appl sendBeacons true
par VANET.node[6].appl beaconLengthBits 256bit
attr unit bit
par VANET.node[6].appl beaconUserPriority 7
par VANET.node[6].appl beaconInterval 1s
attr unit s
par VANET.node[6].appl dataLengthBits 1024bit
attr unit bit
par VANET.node[6].appl dataOnSch false
par VANET.node[6].appl dataUserPriority 7
par VANET.node[6].appl avoidBeaconSynchronization true
par VANET.node[6].appl sendWSA false
par VANET.node[6].appl wsaLengthBits 250bit
attr unit bit
par VANET.node[6].appl wsaInterval 1s
attr unit s
scalar VANET.node[6].appl generatedWSMs 1
scalar VANET.node[6].appl receivedWSMs 41
scalar VANET.node[6].appl generatedBSMs 181
scalar VANET.node[6].appl receivedBSMs 2515
scalar VANET.node[6].appl generatedWSAs 0
scalar VANET.node[6].appl receivedWSAs 0
par VANET.node[6].nic.phy80211p typename "\"org.car2x.veins.modules.phy.PhyLayer80211p\""
par VANET.node[6].nic.phy80211p recordStats false
par VANET.node[6].nic.phy80211p usePropagationDelay true
par VANET.node[6].nic.phy80211p noiseFloor -98dBm
attr unit dBm
par VANET.node[6].nic.phy80211p useNoiseFloor true
par VANET.node[6].nic.phy80211p antenna "<Antenna type=\"SampledAntenna1D\" id=\"monopole\">...</Antenna> at /home/andreia/Projeto/workspace/biblioteca_veins/simulations//antenna.xml:35"
par VANET.node[6].nic.phy80211p antennaOffsetX 0m
attr unit m
par VANET.node[6].nic.phy80211p antennaOffsetY 0m
attr unit m
par VANET.node[6].nic.phy80211p antennaOffsetZ 1.895m
attr unit m
par VANET.node[6].nic.phy80211p antennaOffsetYaw 0rad
attr unit rad
par VANET.node[6].nic.phy80211p analogueModels "<root>...</root> at /home/andreia/Projeto/workspace/biblioteca_veins/simulations//config.xml:34"
par VANET.node[6].nic.phy80211p decider "<root>...</root> at /home/andreia/Projeto/workspace/biblioteca_veins/simulations//config.xml:34"
par VANET.node[6].nic.phy80211p minPowerLevel -110dBm
attr unit dBm
par VANET.node[6].nic.phy80211p timeRXToTX 0s
attr unit s
par VANET.node[6].nic.phy80211p timeRXToSleep 0s
attr unit s
par VANET.node[6].nic.phy80211p timeTXToRX 0s
attr unit s
par VANET.node[6].nic.phy80211p timeTXToSleep 0s
attr unit s
par VANET.node[6].nic.phy80211p timeSleepToRX 0s
attr unit s
par VANET.node[6].nic.phy80211p timeSleepToTX 0s
attr unit s
par VANET.node[6].nic.phy80211p initialRadioState 0
par VANET.node[6].nic.phy80211p radioMinAtt 1
par VANET.node[6].nic.phy80211p radioMaxAtt 0
par VANET.node[6].nic.phy80211p nbRadioChannels 1
par VANET.node[6].nic.phy80211p initialRadioChannel 0
par VANET.node[6].nic.phy80211p ccaThreshold -65dBm
attr unit dBm
par VANET.node[6].nic.phy80211p collectCollisionStatistics false
par VANET.node[6].nic.phy80211p allowTxDuringRx false
scalar VANET.node[6].nic.phy80211p busyTime 0.0017418784530386
par VANET.node[6].nic.mac1609_4 typename "\"org.car2x.veins.modules.mac.ieee80211p.Mac1609_4\""
par VANET.node[6].nic.mac1609_4 notAffectedByHostState false
par VANET.node[6].nic.mac1609_4 headerLength 0bit
attr unit bit
par VANET.node[6].nic.mac1609_4 address "\"auto\""
par VANET.node[6].nic.mac1609_4 useServiceChannel false
par VANET.node[6].nic.mac1609_4 serviceChannel 1
par VANET.node[6].nic.mac1609_4 bitrate 6000000bps
attr unit bps
par VANET.node[6].nic.mac1609_4 syncOffset 0.0003s
attr unit s
par VANET.node[6].nic.mac1609_4 txPower 20mW
attr unit mW
par VANET.node[6].nic.mac1609_4 queueSize 0
par VANET.node[6].nic.mac1609_4 dot11RTSThreshold 12000bit
attr unit bit
par VANET.node[6].nic.mac1609_4 dot11ShortRetryLimit 7
par VANET.node[6].nic.mac1609_4 dot11LongRetryLimit 4
par VANET.node[6].nic.mac1609_4 ackLength 112bit
attr unit bit
par VANET.node[6].nic.mac1609_4 useAcks false
par VANET.node[6].nic.mac1609_4 frameErrorRate 0
par VANET.node[6].nic.mac1609_4 ackErrorRate 0
scalar VANET.node[6].nic.mac1609_4 ReceivedUnicastPackets 0
scalar VANET.node[6].nic.mac1609_4 ReceivedBroadcasts 2556
scalar VANET.node[6].nic.mac1609_4 SentPackets 182
scalar VANET.node[6].nic.mac1609_4 SentAcknowledgements 0
scalar VANET.node[6].nic.mac1609_4 RetriesExceeded 0
scalar VANET.node[6].nic.mac1609_4 SNIRLostPackets 414
scalar VANET.node[6].nic.mac1609_4 RXTXLostPackets 0
scalar VANET.node[6].nic.mac1609_4 TotalLostPackets 414
scalar VANET.node[6].nic.mac1609_4 DroppedPacketsInMac 0
scalar VANET.node[6].nic.mac1609_4 TooLittleTime 0
scalar VANET.node[6].nic.mac1609_4 TimesIntoBackoff 182
scalar VANET.node[6].nic.mac1609_4 SlotsBackoff 275
scalar VANET.node[6].nic.mac1609_4 NumInternalContention 0
scalar VANET.node[6].nic.mac1609_4 totalBusyTime 0.334518
scalar VANET.node[6].nic.mac1609_4 retriesExceeded:count 0
attr recordingmode count
attr source org_car2x_veins_modules_mac_sigRetriesExceeded
scalar VANET.node[6].nic.mac1609_4 sentAcks:count 0
attr recordingmode count
attr source org_car2x_veins_modules_mac_sigSentAck
scalar VANET.node[6].nic.mac1609_4 sentPackets:count 182
attr recordingmode count
attr source org_car2x_veins_modules_mac_sigSentPacket
scalar VANET.node[6].nic.mac1609_4 collisions:count 0
attr recordingmode count
attr source org_car2x_veins_modules_mac_sigCollision
scalar VANET.node[6].nic.mac1609_4 channelBusy:timeavg 0.0018481657458563
attr recordingmode timeavg
attr source org_car2x_veins_modules_mac_sigChannelBusy
par VANET.node[6].nic typename "\"org.car2x.veins.modules.nic.Nic80211p\""
par VANET.node[6].nic connectionManagerName "\"connectionManager\""
par VANET.node[6].veinsmobility typename "\"org.car2x.veins.modules.mobility.traci.TraCIMobility\""
par VANET.node[6].veinsmobility notAffectedByHostState true
par VANET.node[6].veinsmobility x 0
par VANET.node[6].veinsmobility y 0
par VANET.node[6].veinsmobility z 0
par VANET.node[6].veinsmobility xOrientation 1
par VANET.node[6].veinsmobility yOrientation 0
par VANET.node[6].veinsmobility zOrientation 0
par VANET.node[6].veinsmobility hostPositionOffset 0m
attr unit m
par VANET.node[6].veinsmobility setHostSpeed false
par VANET.node[6].veinsmobility accidentCount 0
par VANET.node[6].veinsmobility accidentStart 30.7957s
attr unit s
par VANET.node[6].veinsmobility accidentDuration "uniform(30s, 60s)"
attr unit s
par VANET.node[6].veinsmobility accidentInterval "uniform(30s, 60s)"
attr unit s
scalar VANET.node[6].veinsmobility startTime 19
scalar VANET.node[6].veinsmobility totalTime 181
scalar VANET.node[6].veinsmobility stopTime 200
scalar VANET.node[6].veinsmobility minSpeed 0
scalar VANET.node[6].veinsmobility maxSpeed 13.999806407762
scalar VANET.node[6].veinsmobility totalDistance 1866.5688284167
scalar VANET.node[6].veinsmobility totalCO2Emission 380.77487428017
par VANET.node[6] typename "\"org.car2x.veins.nodes.Car\""
par VANET.node[6] applType "\"biblioteca_veins.CarApp\""
par VANET.node[6] nicType "\"Nic80211p\""
par VANET.node[6] veinsmobilityType "\"org.car2x.veins.modules.mobility.traci.TraCIMobility\""
par VANET.node[7].appl typename "\"biblioteca_veins.CarApp\""
par VANET.node[7].appl headerLength 80bit
attr unit bit
par VANET.node[7].appl sendBeacons true
par VANET.node[7].appl beaconLengthBits 256bit
attr unit bit
par VANET.node[7].appl beaconUserPriority 7
par VANET.node[7].appl beaconInterval 1s
attr unit s
par VANET.node[7].appl dataLengthBits 1024bit
attr unit bit
par VANET.node[7].appl dataOnSch false
par VANET.node[7].appl dataUserPriority 7
par VANET.node[7].appl avoidBeaconSynchronization true
par VANET.node[7].appl sendWSA false
par VANET.node[7].appl wsaLengthBits 250bit
attr unit bit
par VANET.node[7].appl wsaInterval 1s
attr unit s
scalar VANET.node[7].appl generatedWSMs 1
scalar VANET.node[7].appl receivedWSMs 48
scalar VANET.node[7].appl generatedBSMs 178
scalar VANET.node[7].appl receivedBSMs 2625
scalar VANET.node[7].appl generatedWSAs 0
scalar VANET.node[7].appl receivedWSAs 0
par VANET.node[7].nic.phy80211p typename "\"org.car2x.veins.modules.phy.PhyLayer80211p\""
par VANET.node[7].nic.phy80211p recordStats false
par VANET.node[7].nic.phy80211p usePropagationDelay true
par VANET.node[7].nic.phy80211p noiseFloor -98dBm
attr unit dBm
par VANET.node[7].nic.phy80211p useNoiseFloor true
par VANET.node[7].nic.phy80211p antenna "<Antenna type=\"SampledAntenna1D\" id=\"monopole\">...</Antenna> at /home/andreia/Projeto/workspace/biblioteca_veins/simulations//antenna.xml:35"
par VANET.node[7].nic.phy80211p antennaOffsetX 0m
attr unit m
par VANET.node[7].nic.phy80211p antennaOffsetY 0m
attr unit m
par VANET.node[7].nic.phy80211p antennaOffsetZ 1.895m
attr unit m
par VANET.node[7].nic.phy80211p antennaOffsetYaw 0rad
attr unit rad
par VANET.node[7].nic.phy80211p analogueModels "<root>...</root> at /home/andreia/Projeto/workspace/biblioteca_veins/simulations//config.xml:34"
par VANET.node[7].nic.phy80211p decider "<root>...</root> at /home/andreia/Projeto/workspace/biblioteca_veins/simulations//config.xml:34"
par VANET.node[7].nic.phy80211p minPowerLevel -110dBm
attr unit dBm
par VANET.node[7].nic.phy80211p timeRXToTX 0s
attr unit s
par VANET.node[7].nic.phy80211p timeRXToSleep 0s
attr unit s
par VANET.node[7].nic.phy80211p timeTXToRX 0s
attr unit s
par VANET.node[7].nic.phy80211p timeTXToSleep 0s
attr unit s
par VANET.node[7].nic.phy80211p timeSleepToRX 0s
attr unit s
par VANET.node[7].nic.phy80211p timeSleepToTX 0s
attr unit s
par VANET.node[7].nic.phy80211p initialRadioState 0
par VANET.node[7].nic.phy80211p radioMinAtt 1
par VANET.node[7].nic.phy80211p radioMaxAtt 0
par VANET.node[7].nic.phy80211p nbRadioChannels 1
par VANET.node[7].nic.phy80211p initialRadioChannel 0
par VANET.node[7].nic.phy80211p ccaThreshold -65dBm
attr unit dBm
par VANET.node[7].nic.phy80211p collectCollisionStatistics false
par VANET.node[7].nic.phy80211p allowTxDuringRx false
scalar VANET.node[7].nic.phy80211p busyTime 0.0018355955056179
par VANET.node[7].nic.mac1609_4 typename "\"org.car2x.veins.modules.mac.ieee80211p.Mac1609_4\""
par VANET.node[7].nic.mac1609_4 notAffectedByHostState false
par VANET.node[7].nic.mac1609_4 headerLength 0bit
attr unit bit
par VANET.node[7].nic.mac1609_4 address "\"auto\""
par VANET.node[7].nic.mac1609_4 useServiceChannel false
par VANET.node[7].nic.mac1609_4 serviceChannel 1
par VANET.node[7].nic.mac1609_4 bitrate 6000000bps
attr unit bps
par VANET.node[7].nic.mac1609_4 syncOffset 0.0003s
attr unit s
par VANET.node[7].nic.mac1609_4 txPower 20mW
attr unit mW
par VANET.node[7].nic.mac1609_4 queueSize 0
par VANET.node[7].nic.mac1609_4 dot11RTSThreshold 12000bit
attr unit bit
par VANET.node[7].nic.mac1609_4 dot11ShortRetryLimit 7
par VANET.node[7].nic.mac1609_4 dot11LongRetryLimit 4
par VANET.node[7].nic.mac1609_4 ackLength 112bit
attr unit bit
par VANET.node[7].nic.mac1609_4 useAcks false
par VANET.node[7].nic.mac1609_4 frameErrorRate 0
par VANET.node[7].nic.mac1609_4 ackErrorRate 0
scalar VANET.node[7].nic.mac1609_4 ReceivedUnicastPackets 0
scalar VANET.node[7].nic.mac1609_4 ReceivedBroadcasts 2673
scalar VANET.node[7].nic.mac1609_4 SentPackets 179
scalar VANET.node[7].nic.mac1609_4 SentAcknowledgements 0
scalar VANET.node[7].nic.mac1609_4 RetriesExceeded 0
scalar VANET.node[7].nic.mac1609_4 SNIRLostPackets 401
scalar VANET.node[7].nic.mac1609_4 RXTXLostPackets 0
scalar VANET.node[7].nic.mac1609_4 TotalLostPackets 401
scalar VANET.node[7].nic.mac1609_4 DroppedPacketsInMac 0
scalar VANET.node[7].nic.mac1609_4 TooLittleTime 0
scalar VANET.node[7].nic.mac1609_4 TimesIntoBackoff 179
scalar VANET.node[7].nic.mac1609_4 SlotsBackoff 252
scalar VANET.node[7].nic.mac1609_4 NumInternalContention 0
scalar VANET.node[7].nic.mac1609_4 totalBusyTime 0.345659
scalar VANET.node[7].nic.mac1609_4 retriesExceeded:count 0
attr recordingmode count
attr source org_car2x_veins_modules_mac_sigRetriesExceeded
scalar VANET.node[7].nic.mac1609_4 sentAcks:count 0
attr recordingmode count
attr source org_car2x_veins_modules_mac_sigSentAck
scalar VANET.node[7].nic.mac1609_4 sentPackets:count 179
attr recordingmode count
attr source org_car2x_veins_modules_mac_sigSentPacket
scalar VANET.node[7].nic.mac1609_4 collisions:count 0
attr recordingmode count
attr source org_car2x_veins_modules_mac_sigCollision
scalar VANET.node[7].nic.mac1609_4 channelBusy:timeavg 0.001941904494382
attr recordingmode timeavg
attr source org_car2x_veins_modules_mac_sigChannelBusy
par VANET.node[7].nic typename "\"org.car2x.veins.modules.nic.Nic80211p\""
par VANET.node[7].nic connectionManagerName "\"connectionManager\""
par VANET.node[7].veinsmobility typename "\"org.car2x.veins.modules.mobility.traci.TraCIMobility\""
par VANET.node[7].veinsmobility notAffectedByHostState true
par VANET.node[7].veinsmobility x 0
par VANET.node[7].veinsmobility y 0
par VANET.node[7].veinsmobility z 0
par VANET.node[7].veinsmobility xOrientation 1
par VANET.node[7].veinsmobility yOrientation 0
par VANET.node[7].veinsmobility zOrientation 0
par VANET.node[7].veinsmobility hostPositionOffset 0m
attr unit m
par VANET.node[7].veinsmobility setHostSpeed false
par VANET.node[7].veinsmobility accidentCount 0
par VANET.node[7].veinsmobility accidentStart 32.9248s
attr unit s
par VANET.node[7].veinsmobility accidentDuration "uniform(30s, 60s)"
attr unit s
par VANET.node[7].veinsmobility accidentInterval "uniform(30s, 60s)"
attr unit s
scalar VANET.node[7].veinsmobility startTime 22
scalar VANET.node[7].veinsmobility totalTime 178
scalar VANET.node[7].veinsmobility stopTime 200
scalar VANET.node[7].veinsmobility minSpeed 0
scalar VANET.node[7].veinsmobility maxSpeed 13.999889892975
scalar VANET.node[7].veinsmobility totalDistance 1843.8308140698
scalar VANET.node[7].veinsmobility totalCO2Emission 368.28962580355
par VANET.node[7] typename "\"org.car2x.veins.nodes.Car\""
par VANET.node[7] applType "\"biblioteca_veins.CarApp\""
par VANET.node[7] nicType "\"Nic80211p\""
par VANET.node[7] veinsmobilityType "\"org.car2x.veins.modules.mobility.traci.TraCIMobility\""
par VANET.node[8].appl typename "\"biblioteca_veins.CarApp\""
par VANET.node[8].appl headerLength 80bit
attr unit bit
par VANET.node[8].appl sendBeacons true
par VANET.node[8].appl beaconLengthBits 256bit
attr unit bit
par VANET.node[8].appl beaconUserPriority 7
par VANET.node[8].appl beaconInterval 1s
attr unit s
par VANET.node[8].appl dataLengthBits 1024bit
attr unit bit
par VANET.node[8].appl dataOnSch false
par VANET.node[8].appl dataUserPriority 7
par VANET.node[8].appl avoidBeaconSynchronization true
par VANET.node[8].appl sendWSA false
par VANET.node[8].appl wsaLengthBits 250bit
attr unit bit
par VANET.node[8].appl wsaInterval 1s
attr unit s
scalar VANET.node[8].appl generatedWSMs 1
scalar VANET.node[8].appl receivedWSMs 50
scalar VANET.node[8].appl generatedBSMs 175
scalar VANET.node[8].appl receivedBSMs 2653
scalar VANET.node[8].appl generatedWSAs 0
scalar VANET.node[8].appl receivedWSAs 0
par VANET.node[8].nic.phy80211p typename "\"org.car2x.veins.modules.phy.PhyLayer80211p\""
par VANET.node[8].nic.phy80211p recordStats false
par VANET.node[8].nic.phy80211p usePropagationDelay true
par VANET.node[8].nic.phy80211p noiseFloor -98dBm
attr unit dBm
par VANET.node[8].nic.phy80211p useNoiseFloor true
par VANET.node[8].nic.phy80211p antenna "<Antenna type=\"SampledAntenna1D\" id=\"monopole\">...</Antenna> at /home/andreia/Projeto/workspace/biblioteca_veins/simulations//antenna.xml:35"
par VANET.node[8].nic.phy80211p antennaOffsetX 0m
attr unit m
par VANET.node[8].nic.phy80211p antennaOffsetY 0m
attr unit m
par VANET.node[8].nic.phy80211p antennaOffsetZ 1.895m
attr unit m
par VANET.node[8].nic.phy80211p antennaOffsetYaw 0rad
attr unit rad
par VANET.node[8].nic.phy80211p analogueModels "<root>...</root> at /home/andreia/Projeto/workspace/biblioteca_veins/simulations//config.xml:34"
par VANET.node[8].nic.phy80211p decider "<root>...</root> at /home/andreia/Projeto/workspace/biblioteca_veins/simulations//config.xml:34"
par VANET.node[8].nic.phy80211p minPowerLevel -110dBm
attr unit dBm
par VANET.node[8].nic.phy80211p timeRXToTX 0s
attr unit s
par VANET.node[8].nic.phy80211p timeRXToSleep 0s
attr unit s
par VANET.node[8].nic.phy80211p timeTXToRX 0s
attr unit s
par VANET.node[8].nic.phy80211p timeTXToSleep 0s
attr unit s
par VANET.node[8].nic.phy80211p timeSleepToRX 0s
attr unit s
par VANET.node[8].nic.phy80211p timeSleepToTX 0s
attr unit s
par VANET.node[8].nic.phy80211p initialRadioState 0
par VANET.node[8].nic.phy80211p radioMinAtt 1
par VANET.node[8].nic.phy80211p radioMaxAtt 0
par VANET.node[8].nic.phy80211p nbRadioChannels 1
par VANET.node[8].nic.phy80211p initialRadioChannel 0
par VANET.node[8].nic.phy80211p ccaThreshold -65dBm
attr unit dBm
par VANET.node[8].nic.phy80211p collectCollisionStatistics false
par VANET.node[8].nic.phy80211p allowTxDuringRx false
scalar VANET.node[8].nic.phy80211p busyTime 0.0018762514285714
par VANET.node[8].nic.mac1609_4 typename "\"org.car2x.veins.modules.mac.ieee80211p.Mac1609_4\""
par VANET.node[8].nic.mac1609_4 notAffectedByHostState false
par VANET.node[8].nic.mac1609_4 headerLength 0bit
attr unit bit
par VANET.node[8].nic.mac1609_4 address "\"auto\""
par VANET.node[8].nic.mac1609_4 useServiceChannel false
par VANET.node[8].nic.mac1609_4 serviceChannel 1
par VANET.node[8].nic.mac1609_4 bitrate 6000000bps
attr unit bps
par VANET.node[8].nic.mac1609_4 syncOffset 0.0003s
attr unit s
par VANET.node[8].nic.mac1609_4 txPower 20mW
attr unit mW
par VANET.node[8].nic.mac1609_4 queueSize 0
par VANET.node[8].nic.mac1609_4 dot11RTSThreshold 12000bit
attr unit bit
par VANET.node[8].nic.mac1609_4 dot11ShortRetryLimit 7
par VANET.node[8].nic.mac1609_4 dot11LongRetryLimit 4
par VANET.node[8].nic.mac1609_4 ackLength 112bit
attr unit bit
par VANET.node[8].nic.mac1609_4 useAcks false
par VANET.node[8].nic.mac1609_4 frameErrorRate 0
par VANET.node[8].nic.mac1609_4 ackErrorRate 0
scalar VANET.node[8].nic.mac1609_4 ReceivedUnicastPackets 0
scalar VANET.node[8].nic.mac1609_4 ReceivedBroadcasts 2703
scalar VANET.node[8].nic.mac1609_4 SentPackets 176
scalar VANET.node[8].nic.mac1609_4 SentAcknowledgements 0
scalar VANET.node[8].nic.mac1609_4 RetriesExceeded 0
scalar VANET.node[8].nic.mac1609_4 SNIRLostPackets 384
scalar VANET.node[8].nic.mac1609_4 RXTXLostPackets 0
scalar VANET.node[8].nic.mac1609_4 TotalLostPackets 384
scalar VANET.node[8].nic.mac1609_4 DroppedPacketsInMac 0
scalar VANET.node[8].nic.mac1609_4 TooLittleTime 0
scalar VANET.node[8].nic.mac1609_4 TimesIntoBackoff 176
scalar VANET.node[8].nic.mac1609_4 SlotsBackoff 293
scalar VANET.node[8].nic.mac1609_4 NumInternalContention 0
scalar VANET.node[8].nic.mac1609_4 totalBusyTime 0.346952
scalar VANET.node[8].nic.mac1609_4 retriesExceeded:count 0
attr recordingmode count
attr source org_car2x_veins_modules_mac_sigRetriesExceeded
scalar VANET.node[8].nic.mac1609_4 sentAcks:count 0
attr recordingmode count
attr source org_car2x_veins_modules_mac_sigSentAck
scalar VANET.node[8].nic.mac1609_4 sentPackets:count 176
attr recordingmode count
attr source org_car2x_veins_modules_mac_sigSentPacket
scalar VANET.node[8].nic.mac1609_4 collisions:count 0
attr recordingmode count
attr source org_car2x_veins_modules_mac_sigCollision
scalar VANET.node[8].nic.mac1609_4 channelBusy:timeavg 0.0019825828571428
attr recordingmode timeavg
attr source org_car2x_veins_modules_mac_sigChannelBusy
par VANET.node[8].nic typename "\"org.car2x.veins.modules.nic.Nic80211p\""
par VANET.node[8].nic connectionManagerName "\"connectionManager\""
par VANET.node[8].veinsmobility typename "\"org.car2x.veins.modules.mobility.traci.TraCIMobility\""
par VANET.node[8].veinsmobility notAffectedByHostState true
par VANET.node[8].veinsmobility x 0
par VANET.node[8].veinsmobility y 0
par VANET.node[8].veinsmobility z 0
par VANET.node[8].veinsmobility xOrientation 1
par VANET.node[8].veinsmobility yOrientation 0
par VANET.node[8].veinsmobility zOrientation 0
par VANET.node[8].veinsmobility hostPositionOffset 0m
attr unit m
par VANET.node[8].veinsmobility setHostSpeed false
par VANET.node[8].veinsmobility accidentCount 0
par VANET.node[8].veinsmobility accidentStart 51.5817s
attr unit s
par VANET.node[8].veinsmobility accidentDuration "uniform(30s, 60s)"
attr unit s
par VANET.node[8].veinsmobility accidentInterval "uniform(30s, 60s)"
attr unit s
scalar VANET.node[8].veinsmobility startTime 25
scalar VANET.node[8].veinsmobility totalTime 175
scalar VANET.node[8].veinsmobility stopTime 200
scalar VANET.node[8].veinsmobility minSpeed 0
scalar VANET.node[8].veinsmobility maxSpeed 13.998716496292
scalar VANET.node[8].veinsmobility totalDistance 1820.8281034598
scalar VANET.node[8].veinsmobility totalCO2Emission 368.63914286158
par VANET.node[8] typename "\"org.car2x.veins.nodes.Car\""
par VANET.node[8] applType "\"biblioteca_veins.CarApp\""
par VANET.node[8] nicType "\"Nic80211p\""
par VANET.node[8] veinsmobilityType "\"org.car2x.veins.modules.mobility.traci.TraCIMobility\""
par VANET.node[9].appl typename "\"biblioteca_veins.CarApp\""
par VANET.node[9].appl headerLength 80bit
attr unit bit
par VANET.node[9].appl sendBeacons true
par VANET.node[9].appl beaconLengthBits 256bit
attr unit bit
par VANET.node[9].appl beaconUserPriority 7
par VANET.node[9].appl beaconInterval 1s
attr unit s
par VANET.node[9].appl dataLengthBits 1024bit
attr unit bit
par VANET.node[9].appl dataOnSch false
par VANET.node[9].appl dataUserPriority 7
par VANET.node[9].appl avoidBeaconSynchronization true
par VANET.node[9].appl sendWSA false
par VANET.node[9].appl wsaLengthBits 250bit
attr unit bit
par VANET.node[9].appl wsaInterval 1s
attr unit s
scalar VANET.node[9].appl generatedWSMs 1
scalar VANET.node[9].appl receivedWSMs 53
scalar VANET.node[9].appl generatedBSMs 172
scalar VANET.node[9].appl receivedBSMs 2688
scalar VANET.node[9].appl generatedWSAs 0
scalar VANET.node[9].appl receivedWSAs 0
par VANET.node[9].nic.phy80211p typename "\"org.car2x.veins.modules.phy.PhyLayer80211p\""
par VANET.node[9].nic.phy80211p recordStats false
par VANET.node[9].nic.phy80211p usePropagationDelay true
par VANET.node[9].nic.phy80211p noiseFloor -98dBm
attr unit dBm
par VANET.node[9].nic.phy80211p useNoiseFloor true
par VANET.node[9].nic.phy80211p antenna "<Antenna type=\"SampledAntenna1D\" id=\"monopole\">...</Antenna> at /home/andreia/Projeto/workspace/biblioteca_veins/simulations//antenna.xml:35"
par VANET.node[9].nic.phy80211p antennaOffsetX 0m
attr unit m
par VANET.node[9].nic.phy80211p antennaOffsetY 0m
attr unit m
par VANET.node[9].nic.phy80211p antennaOffsetZ 1.895m
attr unit m
par VANET.node[9].nic.phy80211p antennaOffsetYaw 0rad
attr unit rad
par VANET.node[9].nic.phy80211p analogueModels "<root>...</root> at /home/andreia/Projeto/workspace/biblioteca_veins/simulations//config.xml:34"
par VANET.node[9].nic.phy80211p decider "<root>...</root> at /home/andreia/Projeto/workspace/biblioteca_veins/simulations//config.xml:34"
par VANET.node[9].nic.phy80211p minPowerLevel -110dBm
attr unit dBm
par VANET.node[9].nic.phy80211p timeRXToTX 0s
attr unit s
par VANET.node[9].nic.phy80211p timeRXToSleep 0s
attr unit s
par VANET.node[9].nic.phy80211p timeTXToRX 0s
attr unit s
par VANET.node[9].nic.phy80211p timeTXToSleep 0s
attr unit s
par VANET.node[9].nic.phy80211p timeSleepToRX 0s
attr unit s
par VANET.node[9].nic.phy80211p timeSleepToTX 0s
attr unit s
par VANET.node[9].nic.phy80211p initialRadioState 0
par VANET.node[9].nic.phy80211p radioMinAtt 1
par VANET.node[9].nic.phy80211p radioMaxAtt 0
par VANET.node[9].nic.phy80211p nbRadioChannels 1
par VANET.node[9].nic.phy80211p initialRadioChannel 0
par VANET.node[9].nic.phy80211p ccaThreshold -65dBm
attr unit dBm
par VANET.node[9].nic.phy80211p collectCollisionStatistics false
par VANET.node[9].nic.phy80211p allowTxDuringRx false
scalar VANET.node[9].nic.phy80211p busyTime 0.0019132093023255
par VANET.node[9].nic.mac1609_4 typename "\"org.car2x.veins.modules.mac.ieee80211p.Mac1609_4\""
par VANET.node[9].nic.mac1609_4 notAffectedByHostState false
par VANET.node[9].nic.mac1609_4 headerLength 0bit
attr unit bit
par VANET.node[9].nic.mac1609_4 address "\"auto\""
par VANET.node[9].nic.mac1609_4 useServiceChannel false
par VANET.node[9].nic.mac1609_4 serviceChannel 1
par VANET.node[9].nic.mac1609_4 bitrate 6000000bps
attr unit bps
par VANET.node[9].nic.mac1609_4 syncOffset 0.0003s
attr unit s
par VANET.node[9].nic.mac1609_4 txPower 20mW
attr unit mW
par VANET.node[9].nic.mac1609_4 queueSize 0
par VANET.node[9].nic.mac1609_4 dot11RTSThreshold 12000bit
attr unit bit
par VANET.node[9].nic.mac1609_4 dot11ShortRetryLimit 7
par VANET.node[9].nic.mac1609_4 dot11LongRetryLimit 4
par VANET.node[9].nic.mac1609_4 ackLength 112bit
attr unit bit
par VANET.node[9].nic.mac1609_4 useAcks false
par VANET.node[9].nic.mac1609_4 frameErrorRate 0
par VANET.node[9].nic.mac1609_4 ackErrorRate 0
scalar VANET.node[9].nic.mac1609_4 ReceivedUnicastPackets 0
scalar VANET.node[9].nic.mac1609_4 ReceivedBroadcasts 2741
scalar VANET.node[9].nic.mac1609_4 SentPackets 173
scalar VANET.node[9].nic.mac1609_4 SentAcknowledgements 0
scalar VANET.node[9].nic.mac1609_4 RetriesExceeded 0
scalar VANET.node[9].nic.mac1609_4 SNIRLostPackets 353
scalar VANET.node[9].nic.mac1609_4 RXTXLostPackets 0
scalar VANET.node[9].nic.mac1609_4 TotalLostPackets 353
scalar VANET.node[9].nic.mac1609_4 DroppedPacketsInMac 0
scalar VANET.node[9].nic.mac1609_4 TooLittleTime 0
scalar VANET.node[9].nic.mac1609_4 TimesIntoBackoff 173
scalar VANET.node[9].nic.mac1609_4 SlotsBackoff 272
scalar VANET.node[9].nic.mac1609_4 NumInternalContention 0
scalar VANET.node[9].nic.mac1609_4 totalBusyTime 0.347365
scalar VANET.node[9].nic.mac1609_4 retriesExceeded:count 0
attr recordingmode count
attr source org_car2x_veins_modules_mac_sigRetriesExceeded
scalar VANET.node[9].nic.mac1609_4 sentAcks:count 0
attr recordingmode count
attr source org_car2x_veins_modules_mac_sigSentAck
scalar VANET.node[9].nic.mac1609_4 sentPackets:count 173
attr recordingmode count
attr source org_car2x_veins_modules_mac_sigSentPacket
scalar VANET.node[9].nic.mac1609_4 collisions:count 0
attr recordingmode count
attr source org_car2x_veins_modules_mac_sigCollision
scalar VANET.node[9].nic.mac1609_4 channelBusy:timeavg 0.0020195639534883
attr recordingmode timeavg
attr source org_car2x_veins_modules_mac_sigChannelBusy
par VANET.node[9].nic typename "\"org.car2x.veins.modules.nic.Nic80211p\""
par VANET.node[9].nic connectionManagerName "\"connectionManager\""
par VANET.node[9].veinsmobility typename "\"org.car2x.veins.modules.mobility.traci.TraCIMobility\""
par VANET.node[9].veinsmobility notAffectedByHostState true
par VANET.node[9].veinsmobility x 0
par VANET.node[9].veinsmobility y 0
par VANET.node[9].veinsmobility z 0
par VANET.node[9].veinsmobility xOrientation 1
par VANET.node[9].veinsmobility yOrientation 0
par VANET.node[9].veinsmobility zOrientation 0
par VANET.node[9].veinsmobility hostPositionOffset 0m
attr unit m
par VANET.node[9].veinsmobility setHostSpeed false
par VANET.node[9].veinsmobility accidentCount 0
par VANET.node[9].veinsmobility accidentStart 56.9591s
attr unit s
par VANET.node[9].veinsmobility accidentDuration "uniform(30s, 60s)"
attr unit s
par VANET.node[9].veinsmobility accidentInterval "uniform(30s, 60s)"
attr unit s
scalar VANET.node[9].veinsmobility startTime 28
scalar VANET.node[9].veinsmobility totalTime 172
scalar VANET.node[9].veinsmobility stopTime 200
scalar VANET.node[9].veinsmobility minSpeed 0
scalar VANET.node[9].veinsmobility maxSpeed 13.999905188144
scalar VANET.node[9].veinsmobility totalDistance 1797.8292727528
scalar VANET.node[9].veinsmobility totalCO2Emission 364.86733521946
par VANET.node[9] typename "\"org.car2x.veins.nodes.Car\""
par VANET.node[9] applType "\"biblioteca_veins.CarApp\""
par VANET.node[9] nicType "\"Nic80211p\""
par VANET.node[9] veinsmobilityType "\"org.car2x.veins.modules.mobility.traci.TraCIMobility\""
par VANET.node[10].appl typename "\"biblioteca_veins.CarApp\""
par VANET.node[10].appl headerLength 80bit
attr unit bit
par VANET.node[10].appl sendBeacons true
par VANET.node[10].appl beaconLengthBits 256bit
attr unit bit
par VANET.node[10].appl beaconUserPriority 7
par VANET.node[10].appl beaconInterval 1s
attr unit s
par VANET.node[10].appl dataLengthBits 1024bit
attr unit bit
par VANET.node[10].appl dataOnSch false
par VANET.node[10].appl dataUserPriority 7
par VANET.node[10].appl avoidBeaconSynchronization true
par VANET.node[10].appl sendWSA false
par VANET.node[10].appl wsaLengthBits 250bit
attr unit bit
par VANET.node[10].appl wsaInterval 1s
attr unit s
scalar VANET.node[10].appl generatedWSMs 1
scalar VANET.node[10].appl receivedWSMs 57
scalar VANET.node[10].appl generatedBSMs 169
scalar VANET.node[10].appl receivedBSMs 3095
scalar VANET.node[10].appl generatedWSAs 0
scalar VANET.node[10].appl receivedWSAs 0
par VANET.node[10].nic.phy80211p typename "\"org.car2x.veins.modules.phy.PhyLayer80211p\""
par VANET.node[10].nic.phy80211p recordStats false
par VANET.node[10].nic.phy80211p usePropagationDelay true
par VANET.node[10].nic.phy80211p noiseFloor -98dBm
attr unit dBm
par VANET.node[10].nic.phy80211p useNoiseFloor true
par VANET.node[10].nic.phy80211p antenna "<Antenna type=\"SampledAntenna1D\" id=\"monopole\">...</Antenna> at /home/andreia/Projeto/workspace/biblioteca_veins/simulations//antenna.xml:35"
par VANET.node[10].nic.phy80211p antennaOffsetX 0m
attr unit m
par VANET.node[10].nic.phy80211p antennaOffsetY 0m
attr unit m
par VANET.node[10].nic.phy80211p antennaOffsetZ 1.895m
attr unit m
par VANET.node[10].nic.phy80211p antennaOffsetYaw 0rad
attr unit rad
par VANET.node[10].nic.phy80211p analogueModels "<root>...</root> at /home/andreia/Projeto/workspace/biblioteca_veins/simulations//config.xml:34"
par VANET.node[10].nic.phy80211p decider "<root>...</root> at /home/andreia/Projeto/workspace/biblioteca_veins/simulations//config.xml:34"
par VANET.node[10].nic.phy80211p minPowerLevel -110dBm
attr unit dBm
par VANET.node[10].nic.phy80211p timeRXToTX 0s
attr unit s
par VANET.node[10].nic.phy80211p timeRXToSleep 0s
attr unit s
par VANET.node[10].nic.phy80211p timeTXToRX 0s
attr unit s
par VANET.node[10].nic.phy80211p timeTXToSleep 0s
attr unit s
par VANET.node[10].nic.phy80211p timeSleepToRX 0s
attr unit s
par VANET.node[10].nic.phy80211p timeSleepToTX 0s
attr unit s
par VANET.node[10].nic.phy80211p initialRadioState 0
par VANET.node[10].nic.phy80211p radioMinAtt 1
par VANET.node[10].nic.phy80211p radioMaxAtt 0
par VANET.node[10].nic.phy80211p nbRadioChannels 1
par VANET.node[10].nic.phy80211p initialRadioChannel 0
par VANET.node[10].nic.phy80211p ccaThreshold -65dBm
attr unit dBm
par VANET.node[10].nic.phy80211p collectCollisionStatistics false
par VANET.node[10].nic.phy80211p allowTxDuringRx false
scalar VANET.node[10].nic.phy80211p busyTime 0.0020425088757396
par VANET.node[10].nic.mac1609_4 typename "\"org.car2x.veins.modules.mac.ieee80211p.Mac1609_4\""
par VANET.node[10].nic.mac1609_4 notAffectedByHostState false
par VANET.node[10].nic.mac1609_4 headerLength 0bit
attr unit bit
par VANET.node[10].nic.mac1609_4 address "\"auto\""
par VANET.node[10].nic.mac1609_4 useServiceChannel false
par VANET.node[10].nic.mac1609_4 serviceChannel 1
par VANET.node[10].nic.mac1609_4 bitrate 6000000bps
attr unit bps
par VANET.node[10].nic.mac1609_4 syncOffset 0.0003s
attr unit s
par VANET.node[10].nic.mac1609_4 txPower 20mW
attr unit mW
par VANET.node[10].nic.mac1609_4 queueSize 0
par VANET.node[10].nic.mac1609_4 dot11RTSThreshold 12000bit
attr unit bit
par VANET.node[10].nic.mac1609_4 dot11ShortRetryLimit 7
par VANET.node[10].nic.mac1609_4 dot11LongRetryLimit 4
par VANET.node[10].nic.mac1609_4 ackLength 112bit
attr unit bit
par VANET.node[10].nic.mac1609_4 useAcks false
par VANET.node[10].nic.mac1609_4 frameErrorRate 0
par VANET.node[10].nic.mac1609_4 ackErrorRate 0
scalar VANET.node[10].nic.mac1609_4 ReceivedUnicastPackets 0
scalar VANET.node[10].nic.mac1609_4 ReceivedBroadcasts 3152
scalar VANET.node[10].nic.mac1609_4 SentPackets 170
scalar VANET.node[10].nic.mac1609_4 SentAcknowledgements 0
scalar VANET.node[10].nic.mac1609_4 RetriesExceeded 0
scalar VANET.node[10].nic.mac1609_4 SNIRLostPackets 92
scalar VANET.node[10].nic.mac1609_4 RXTXLostPackets 0
scalar VANET.node[10].nic.mac1609_4 TotalLostPackets 92
scalar VANET.node[10].nic.mac1609_4 DroppedPacketsInMac 0
scalar VANET.node[10].nic.mac1609_4 TooLittleTime 0
scalar VANET.node[10].nic.mac1609_4 TimesIntoBackoff 170
scalar VANET.node[10].nic.mac1609_4 SlotsBackoff 259
scalar VANET.node[10].nic.mac1609_4 NumInternalContention 0
scalar VANET.node[10].nic.mac1609_4 totalBusyTime 0.36293
scalar VANET.node[10].nic.mac1609_4 retriesExceeded:count 0
attr recordingmode count
attr source org_car2x_veins_modules_mac_sigRetriesExceeded
scalar VANET.node[10].nic.mac1609_4 sentAcks:count 0
attr recordingmode count
attr source org_car2x_veins_modules_mac_sigSentAck
scalar VANET.node[10].nic.mac1609_4 sentPackets:count 170
attr recordingmode count
attr source org_car2x_veins_modules_mac_sigSentPacket
scalar VANET.node[10].nic.mac1609_4 collisions:count 0
attr recordingmode count
[...]
attr unit bit
par VANET.node[65].appl sendBeacons true
par VANET.node[65].appl beaconLengthBits 256bit
attr unit bit
par VANET.node[65].appl beaconUserPriority 7
par VANET.node[65].appl beaconInterval 1s
attr unit s
par VANET.node[65].appl dataLengthBits 1024bit
attr unit bit
par VANET.node[65].appl dataOnSch false
par VANET.node[65].appl dataUserPriority 7
par VANET.node[65].appl avoidBeaconSynchronization true
par VANET.node[65].appl sendWSA false
par VANET.node[65].appl wsaLengthBits 250bit
attr unit bit
par VANET.node[65].appl wsaInterval 1s
attr unit s
scalar VANET.node[65].appl generatedWSMs 0
scalar VANET.node[65].appl receivedWSMs 0
scalar VANET.node[65].appl generatedBSMs 4
scalar VANET.node[65].appl receivedBSMs 93
scalar VANET.node[65].appl generatedWSAs 0
scalar VANET.node[65].appl receivedWSAs 0
par VANET.node[65].nic.phy80211p typename "\"org.car2x.veins.modules.phy.PhyLayer80211p\""
par VANET.node[65].nic.phy80211p recordStats false
par VANET.node[65].nic.phy80211p usePropagationDelay true
par VANET.node[65].nic.phy80211p noiseFloor -98dBm
attr unit dBm
par VANET.node[65].nic.phy80211p useNoiseFloor true
par VANET.node[65].nic.phy80211p antenna "<Antenna type=\"SampledAntenna1D\" id=\"monopole\">...</Antenna> at /home/andreia/Projeto/workspace/biblioteca_veins/simulations//antenna.xml:35"
par VANET.node[65].nic.phy80211p antennaOffsetX 0m
attr unit m
par VANET.node[65].nic.phy80211p antennaOffsetY 0m
attr unit m
par VANET.node[65].nic.phy80211p antennaOffsetZ 1.895m
attr unit m
par VANET.node[65].nic.phy80211p antennaOffsetYaw 0rad
attr unit rad
par VANET.node[65].nic.phy80211p analogueModels "<root>...</root> at /home/andreia/Projeto/workspace/biblioteca_veins/simulations//config.xml:34"
par VANET.node[65].nic.phy80211p decider "<root>...</root> at /home/andreia/Projeto/workspace/biblioteca_veins/simulations//config.xml:34"
par VANET.node[65].nic.phy80211p minPowerLevel -110dBm
attr unit dBm
par VANET.node[65].nic.phy80211p timeRXToTX 0s
attr unit s
par VANET.node[65].nic.phy80211p timeRXToSleep 0s
attr unit s
par VANET.node[65].nic.phy80211p timeTXToRX 0s
attr unit s
par VANET.node[65].nic.phy80211p timeTXToSleep 0s
attr unit s
par VANET.node[65].nic.phy80211p timeSleepToRX 0s
attr unit s
par VANET.node[65].nic.phy80211p timeSleepToTX 0s
attr unit s
par VANET.node[65].nic.phy80211p initialRadioState 0
par VANET.node[65].nic.phy80211p radioMinAtt 1
par VANET.node[65].nic.phy80211p radioMaxAtt 0
par VANET.node[65].nic.phy80211p nbRadioChannels 1
par VANET.node[65].nic.phy80211p initialRadioChannel 0
par VANET.node[65].nic.phy80211p ccaThreshold -65dBm
attr unit dBm
par VANET.node[65].nic.phy80211p collectCollisionStatistics false
par VANET.node[65].nic.phy80211p allowTxDuringRx false
scalar VANET.node[65].nic.phy80211p busyTime 0.002678
par VANET.node[65].nic.mac1609_4 typename "\"org.car2x.veins.modules.mac.ieee80211p.Mac1609_4\""
par VANET.node[65].nic.mac1609_4 notAffectedByHostState false
par VANET.node[65].nic.mac1609_4 headerLength 0bit
attr unit bit
par VANET.node[65].nic.mac1609_4 address "\"auto\""
par VANET.node[65].nic.mac1609_4 useServiceChannel false
par VANET.node[65].nic.mac1609_4 serviceChannel 1
par VANET.node[65].nic.mac1609_4 bitrate 6000000bps
attr unit bps
par VANET.node[65].nic.mac1609_4 syncOffset 0.0003s
attr unit s
par VANET.node[65].nic.mac1609_4 txPower 20mW
attr unit mW
par VANET.node[65].nic.mac1609_4 queueSize 0
par VANET.node[65].nic.mac1609_4 dot11RTSThreshold 12000bit
attr unit bit
par VANET.node[65].nic.mac1609_4 dot11ShortRetryLimit 7
par VANET.node[65].nic.mac1609_4 dot11LongRetryLimit 4
par VANET.node[65].nic.mac1609_4 ackLength 112bit
attr unit bit
par VANET.node[65].nic.mac1609_4 useAcks false
par VANET.node[65].nic.mac1609_4 frameErrorRate 0
par VANET.node[65].nic.mac1609_4 ackErrorRate 0
scalar VANET.node[65].nic.mac1609_4 ReceivedUnicastPackets 0
scalar VANET.node[65].nic.mac1609_4 ReceivedBroadcasts 93
scalar VANET.node[65].nic.mac1609_4 SentPackets 4
scalar VANET.node[65].nic.mac1609_4 SentAcknowledgements 0
scalar VANET.node[65].nic.mac1609_4 RetriesExceeded 0
scalar VANET.node[65].nic.mac1609_4 SNIRLostPackets 10
scalar VANET.node[65].nic.mac1609_4 RXTXLostPackets 0
scalar VANET.node[65].nic.mac1609_4 TotalLostPackets 10
scalar VANET.node[65].nic.mac1609_4 DroppedPacketsInMac 0
scalar VANET.node[65].nic.mac1609_4 TooLittleTime 0
scalar VANET.node[65].nic.mac1609_4 TimesIntoBackoff 4
scalar VANET.node[65].nic.mac1609_4 SlotsBackoff 3
scalar VANET.node[65].nic.mac1609_4 NumInternalContention 0
scalar VANET.node[65].nic.mac1609_4 totalBusyTime 0.011132
scalar VANET.node[65].nic.mac1609_4 retriesExceeded:count 0
attr recordingmode count
attr source org_car2x_veins_modules_mac_sigRetriesExceeded
scalar VANET.node[65].nic.mac1609_4 sentAcks:count 0
attr recordingmode count
attr source org_car2x_veins_modules_mac_sigSentAck
scalar VANET.node[65].nic.mac1609_4 sentPackets:count 4
attr recordingmode count
attr source org_car2x_veins_modules_mac_sigSentPacket
scalar VANET.node[65].nic.mac1609_4 collisions:count 0
attr recordingmode count
attr source org_car2x_veins_modules_mac_sigCollision
scalar VANET.node[65].nic.mac1609_4 channelBusy:timeavg 0.002783
attr recordingmode timeavg
attr source org_car2x_veins_modules_mac_sigChannelBusy
par VANET.node[65].nic typename "\"org.car2x.veins.modules.nic.Nic80211p\""
par VANET.node[65].nic connectionManagerName "\"connectionManager\""
par VANET.node[65].veinsmobility typename "\"org.car2x.veins.modules.mobility.traci.TraCIMobility\""
par VANET.node[65].veinsmobility notAffectedByHostState true
par VANET.node[65].veinsmobility x 0
par VANET.node[65].veinsmobility y 0
par VANET.node[65].veinsmobility z 0
par VANET.node[65].veinsmobility xOrientation 1
par VANET.node[65].veinsmobility yOrientation 0
par VANET.node[65].veinsmobility zOrientation 0
par VANET.node[65].veinsmobility hostPositionOffset 0m
attr unit m
par VANET.node[65].veinsmobility setHostSpeed false
par VANET.node[65].veinsmobility accidentCount 0
par VANET.node[65].veinsmobility accidentStart 42.1353s
attr unit s
par VANET.node[65].veinsmobility accidentDuration "uniform(30s, 60s)"
attr unit s
par VANET.node[65].veinsmobility accidentInterval "uniform(30s, 60s)"
attr unit s
scalar VANET.node[65].veinsmobility startTime 196
scalar VANET.node[65].veinsmobility totalTime 4
scalar VANET.node[65].veinsmobility stopTime 200
scalar VANET.node[65].veinsmobility minSpeed 3.9035555463673
scalar VANET.node[65].veinsmobility maxSpeed 9.6555590937442
scalar VANET.node[65].veinsmobility totalDistance 23.625292592395
scalar VANET.node[65].veinsmobility totalCO2Emission 15.319209201116
par VANET.node[65] typename "\"org.car2x.veins.nodes.Car\""
par VANET.node[65] applType "\"biblioteca_veins.CarApp\""
par VANET.node[65] nicType "\"Nic80211p\""
par VANET.node[65] veinsmobilityType "\"org.car2x.veins.modules.mobility.traci.TraCIMobility\""
par VANET.node[66].appl typename "\"biblioteca_veins.CarApp\""
par VANET.node[66].appl headerLength 80bit
attr unit bit
par VANET.node[66].appl sendBeacons true
par VANET.node[66].appl beaconLengthBits 256bit
attr unit bit
par VANET.node[66].appl beaconUserPriority 7
par VANET.node[66].appl beaconInterval 1s
attr unit s
par VANET.node[66].appl dataLengthBits 1024bit
attr unit bit
par VANET.node[66].appl dataOnSch false
par VANET.node[66].appl dataUserPriority 7
par VANET.node[66].appl avoidBeaconSynchronization true
par VANET.node[66].appl sendWSA false
par VANET.node[66].appl wsaLengthBits 250bit
attr unit bit
par VANET.node[66].appl wsaInterval 1s
attr unit s
scalar VANET.node[66].appl generatedWSMs 0
scalar VANET.node[66].appl receivedWSMs 0
scalar VANET.node[66].appl generatedBSMs 1
scalar VANET.node[66].appl receivedBSMs 25
scalar VANET.node[66].appl generatedWSAs 0
scalar VANET.node[66].appl receivedWSAs 0
par VANET.node[66].nic.phy80211p typename "\"org.car2x.veins.modules.phy.PhyLayer80211p\""
par VANET.node[66].nic.phy80211p recordStats false
par VANET.node[66].nic.phy80211p usePropagationDelay true
par VANET.node[66].nic.phy80211p noiseFloor -98dBm
attr unit dBm
par VANET.node[66].nic.phy80211p useNoiseFloor true
par VANET.node[66].nic.phy80211p antenna "<Antenna type=\"SampledAntenna1D\" id=\"monopole\">...</Antenna> at /home/andreia/Projeto/workspace/biblioteca_veins/simulations//antenna.xml:35"
par VANET.node[66].nic.phy80211p antennaOffsetX 0m
attr unit m
par VANET.node[66].nic.phy80211p antennaOffsetY 0m
attr unit m
par VANET.node[66].nic.phy80211p antennaOffsetZ 1.895m
attr unit m
par VANET.node[66].nic.phy80211p antennaOffsetYaw 0rad
attr unit rad
par VANET.node[66].nic.phy80211p analogueModels "<root>...</root> at /home/andreia/Projeto/workspace/biblioteca_veins/simulations//config.xml:34"
par VANET.node[66].nic.phy80211p decider "<root>...</root> at /home/andreia/Projeto/workspace/biblioteca_veins/simulations//config.xml:34"
par VANET.node[66].nic.phy80211p minPowerLevel -110dBm
attr unit dBm
par VANET.node[66].nic.phy80211p timeRXToTX 0s
attr unit s
par VANET.node[66].nic.phy80211p timeRXToSleep 0s
attr unit s
par VANET.node[66].nic.phy80211p timeTXToRX 0s
attr unit s
par VANET.node[66].nic.phy80211p timeTXToSleep 0s
attr unit s
par VANET.node[66].nic.phy80211p timeSleepToRX 0s
attr unit s
par VANET.node[66].nic.phy80211p timeSleepToTX 0s
attr unit s
par VANET.node[66].nic.phy80211p initialRadioState 0
par VANET.node[66].nic.phy80211p radioMinAtt 1
par VANET.node[66].nic.phy80211p radioMaxAtt 0
par VANET.node[66].nic.phy80211p nbRadioChannels 1
par VANET.node[66].nic.phy80211p initialRadioChannel 0
par VANET.node[66].nic.phy80211p ccaThreshold -65dBm
attr unit dBm
par VANET.node[66].nic.phy80211p collectCollisionStatistics false
par VANET.node[66].nic.phy80211p allowTxDuringRx false
scalar VANET.node[66].nic.phy80211p busyTime 0.002808
par VANET.node[66].nic.mac1609_4 typename "\"org.car2x.veins.modules.mac.ieee80211p.Mac1609_4\""
par VANET.node[66].nic.mac1609_4 notAffectedByHostState false
par VANET.node[66].nic.mac1609_4 headerLength 0bit
attr unit bit
par VANET.node[66].nic.mac1609_4 address "\"auto\""
par VANET.node[66].nic.mac1609_4 useServiceChannel false
par VANET.node[66].nic.mac1609_4 serviceChannel 1
par VANET.node[66].nic.mac1609_4 bitrate 6000000bps
attr unit bps
par VANET.node[66].nic.mac1609_4 syncOffset 0.0003s
attr unit s
par VANET.node[66].nic.mac1609_4 txPower 20mW
attr unit mW
par VANET.node[66].nic.mac1609_4 queueSize 0
par VANET.node[66].nic.mac1609_4 dot11RTSThreshold 12000bit
attr unit bit
par VANET.node[66].nic.mac1609_4 dot11ShortRetryLimit 7
par VANET.node[66].nic.mac1609_4 dot11LongRetryLimit 4
par VANET.node[66].nic.mac1609_4 ackLength 112bit
attr unit bit
par VANET.node[66].nic.mac1609_4 useAcks false
par VANET.node[66].nic.mac1609_4 frameErrorRate 0
par VANET.node[66].nic.mac1609_4 ackErrorRate 0
scalar VANET.node[66].nic.mac1609_4 ReceivedUnicastPackets 0
scalar VANET.node[66].nic.mac1609_4 ReceivedBroadcasts 25
scalar VANET.node[66].nic.mac1609_4 SentPackets 1
scalar VANET.node[66].nic.mac1609_4 SentAcknowledgements 0
scalar VANET.node[66].nic.mac1609_4 RetriesExceeded 0
scalar VANET.node[66].nic.mac1609_4 SNIRLostPackets 2
scalar VANET.node[66].nic.mac1609_4 RXTXLostPackets 0
scalar VANET.node[66].nic.mac1609_4 TotalLostPackets 2
scalar VANET.node[66].nic.mac1609_4 DroppedPacketsInMac 0
scalar VANET.node[66].nic.mac1609_4 TooLittleTime 0
scalar VANET.node[66].nic.mac1609_4 TimesIntoBackoff 1
scalar VANET.node[66].nic.mac1609_4 SlotsBackoff 3
scalar VANET.node[66].nic.mac1609_4 NumInternalContention 0
scalar VANET.node[66].nic.mac1609_4 totalBusyTime 0.002913
scalar VANET.node[66].nic.mac1609_4 retriesExceeded:count 0
attr recordingmode count
attr source org_car2x_veins_modules_mac_sigRetriesExceeded
scalar VANET.node[66].nic.mac1609_4 sentAcks:count 0
attr recordingmode count
attr source org_car2x_veins_modules_mac_sigSentAck
scalar VANET.node[66].nic.mac1609_4 sentPackets:count 1
attr recordingmode count
attr source org_car2x_veins_modules_mac_sigSentPacket
scalar VANET.node[66].nic.mac1609_4 collisions:count 0
attr recordingmode count
attr source org_car2x_veins_modules_mac_sigCollision
scalar VANET.node[66].nic.mac1609_4 channelBusy:timeavg 0.002913
attr recordingmode timeavg
attr source org_car2x_veins_modules_mac_sigChannelBusy
par VANET.node[66].nic typename "\"org.car2x.veins.modules.nic.Nic80211p\""
par VANET.node[66].nic connectionManagerName "\"connectionManager\""
par VANET.node[66].veinsmobility typename "\"org.car2x.veins.modules.mobility.traci.TraCIMobility\""
par VANET.node[66].veinsmobility notAffectedByHostState true
par VANET.node[66].veinsmobility x 0
par VANET.node[66].veinsmobility y 0
par VANET.node[66].veinsmobility z 0
par VANET.node[66].veinsmobility xOrientation 1
par VANET.node[66].veinsmobility yOrientation 0
par VANET.node[66].veinsmobility zOrientation 0
par VANET.node[66].veinsmobility hostPositionOffset 0m
attr unit m
par VANET.node[66].veinsmobility setHostSpeed false
par VANET.node[66].veinsmobility accidentCount 0
par VANET.node[66].veinsmobility accidentStart 37.1037s
attr unit s
par VANET.node[66].veinsmobility accidentDuration "uniform(30s, 60s)"
attr unit s
par VANET.node[66].veinsmobility accidentInterval "uniform(30s, 60s)"
attr unit s
scalar VANET.node[66].veinsmobility startTime 199
scalar VANET.node[66].veinsmobility totalTime 1
scalar VANET.node[66].veinsmobility stopTime 200
scalar VANET.node[66].veinsmobility minSpeed 3.9654431967067
scalar VANET.node[66].veinsmobility maxSpeed 3.9654431967067
scalar VANET.node[66].veinsmobility totalDistance 3.1020147982786
scalar VANET.node[66].veinsmobility totalCO2Emission 0
par VANET.node[66] typename "\"org.car2x.veins.nodes.Car\""
par VANET.node[66] applType "\"biblioteca_veins.CarApp\""
par VANET.node[66] nicType "\"Nic80211p\""
par VANET.node[66] veinsmobilityType "\"org.car2x.veins.modules.mobility.traci.TraCIMobility\""
par VANET.rsu[0].appl typename "\"biblioteca_veins.RSUApp\""
par VANET.rsu[0].appl headerLength 80bit
attr unit bit
par VANET.rsu[0].appl sendBeacons true
par VANET.rsu[0].appl beaconLengthBits 256bit
attr unit bit
par VANET.rsu[0].appl beaconUserPriority 7
par VANET.rsu[0].appl beaconInterval 1s
attr unit s
par VANET.rsu[0].appl dataLengthBits 1024bit
attr unit bit
par VANET.rsu[0].appl dataOnSch false
par VANET.rsu[0].appl dataUserPriority 5
par VANET.rsu[0].appl avoidBeaconSynchronization true
par VANET.rsu[0].appl sendWSA false
par VANET.rsu[0].appl wsaLengthBits 250bit
attr unit bit
par VANET.rsu[0].appl wsaInterval 1s
attr unit s
scalar VANET.rsu[0].appl generatedWSMs 26
scalar VANET.rsu[0].appl receivedWSMs 26
scalar VANET.rsu[0].appl generatedBSMs 200
scalar VANET.rsu[0].appl receivedBSMs 2322
scalar VANET.rsu[0].appl generatedWSAs 0
scalar VANET.rsu[0].appl receivedWSAs 0
par VANET.rsu[0].nic.phy80211p typename "\"org.car2x.veins.modules.phy.PhyLayer80211p\""
par VANET.rsu[0].nic.phy80211p recordStats false
par VANET.rsu[0].nic.phy80211p usePropagationDelay true
par VANET.rsu[0].nic.phy80211p noiseFloor -98dBm
attr unit dBm
par VANET.rsu[0].nic.phy80211p useNoiseFloor true
par VANET.rsu[0].nic.phy80211p antenna "<Antenna type=\"SampledAntenna1D\" id=\"monopole\">...</Antenna> at /home/andreia/Projeto/workspace/biblioteca_veins/simulations//antenna.xml:35"
par VANET.rsu[0].nic.phy80211p antennaOffsetX 0m
attr unit m
par VANET.rsu[0].nic.phy80211p antennaOffsetY 0m
attr unit m
par VANET.rsu[0].nic.phy80211p antennaOffsetZ 0m
attr unit m
par VANET.rsu[0].nic.phy80211p antennaOffsetYaw 0rad
attr unit rad
par VANET.rsu[0].nic.phy80211p analogueModels "<root>...</root> at /home/andreia/Projeto/workspace/biblioteca_veins/simulations//config.xml:34"
par VANET.rsu[0].nic.phy80211p decider "<root>...</root> at /home/andreia/Projeto/workspace/biblioteca_veins/simulations//config.xml:34"
par VANET.rsu[0].nic.phy80211p minPowerLevel -110dBm
attr unit dBm
par VANET.rsu[0].nic.phy80211p timeRXToTX 0s
attr unit s
par VANET.rsu[0].nic.phy80211p timeRXToSleep 0s
attr unit s
par VANET.rsu[0].nic.phy80211p timeTXToRX 0s
attr unit s
par VANET.rsu[0].nic.phy80211p timeTXToSleep 0s
attr unit s
par VANET.rsu[0].nic.phy80211p timeSleepToRX 0s
attr unit s
par VANET.rsu[0].nic.phy80211p timeSleepToTX 0s
attr unit s
par VANET.rsu[0].nic.phy80211p initialRadioState 0
par VANET.rsu[0].nic.phy80211p radioMinAtt 1
par VANET.rsu[0].nic.phy80211p radioMaxAtt 0
par VANET.rsu[0].nic.phy80211p nbRadioChannels 1
par VANET.rsu[0].nic.phy80211p initialRadioChannel 0
par VANET.rsu[0].nic.phy80211p ccaThreshold -65dBm
attr unit dBm
par VANET.rsu[0].nic.phy80211p collectCollisionStatistics false
par VANET.rsu[0].nic.phy80211p allowTxDuringRx false
scalar VANET.rsu[0].nic.phy80211p busyTime 0.00159088
par VANET.rsu[0].nic.mac1609_4 typename "\"org.car2x.veins.modules.mac.ieee80211p.Mac1609_4\""
par VANET.rsu[0].nic.mac1609_4 notAffectedByHostState false
par VANET.rsu[0].nic.mac1609_4 headerLength 0bit
attr unit bit
par VANET.rsu[0].nic.mac1609_4 address "\"auto\""
par VANET.rsu[0].nic.mac1609_4 useServiceChannel false
par VANET.rsu[0].nic.mac1609_4 serviceChannel 1
par VANET.rsu[0].nic.mac1609_4 bitrate 6000000bps
attr unit bps
par VANET.rsu[0].nic.mac1609_4 syncOffset 0.0003s
attr unit s
par VANET.rsu[0].nic.mac1609_4 txPower 20mW
attr unit mW
par VANET.rsu[0].nic.mac1609_4 queueSize 0
par VANET.rsu[0].nic.mac1609_4 dot11RTSThreshold 12000bit
attr unit bit
par VANET.rsu[0].nic.mac1609_4 dot11ShortRetryLimit 7
par VANET.rsu[0].nic.mac1609_4 dot11LongRetryLimit 4
par VANET.rsu[0].nic.mac1609_4 ackLength 112bit
attr unit bit
par VANET.rsu[0].nic.mac1609_4 useAcks false
par VANET.rsu[0].nic.mac1609_4 frameErrorRate 0
par VANET.rsu[0].nic.mac1609_4 ackErrorRate 0
scalar VANET.rsu[0].nic.mac1609_4 ReceivedUnicastPackets 0
scalar VANET.rsu[0].nic.mac1609_4 ReceivedBroadcasts 2348
scalar VANET.rsu[0].nic.mac1609_4 SentPackets 226
scalar VANET.rsu[0].nic.mac1609_4 SentAcknowledgements 0
scalar VANET.rsu[0].nic.mac1609_4 RetriesExceeded 0
scalar VANET.rsu[0].nic.mac1609_4 SNIRLostPackets 672
scalar VANET.rsu[0].nic.mac1609_4 RXTXLostPackets 0
scalar VANET.rsu[0].nic.mac1609_4 TotalLostPackets 672
scalar VANET.rsu[0].nic.mac1609_4 DroppedPacketsInMac 0
scalar VANET.rsu[0].nic.mac1609_4 TooLittleTime 0
scalar VANET.rsu[0].nic.mac1609_4 TimesIntoBackoff 226
scalar VANET.rsu[0].nic.mac1609_4 SlotsBackoff 345
scalar VANET.rsu[0].nic.mac1609_4 NumInternalContention 0
scalar VANET.rsu[0].nic.mac1609_4 totalBusyTime 0.345234
scalar VANET.rsu[0].nic.mac1609_4 retriesExceeded:count 0
attr recordingmode count
attr source org_car2x_veins_modules_mac_sigRetriesExceeded
scalar VANET.rsu[0].nic.mac1609_4 sentAcks:count 0
attr recordingmode count
attr source org_car2x_veins_modules_mac_sigSentAck
scalar VANET.rsu[0].nic.mac1609_4 sentPackets:count 226
attr recordingmode count
attr source org_car2x_veins_modules_mac_sigSentPacket
scalar VANET.rsu[0].nic.mac1609_4 collisions:count 0
attr recordingmode count
attr source org_car2x_veins_modules_mac_sigCollision
scalar VANET.rsu[0].nic.mac1609_4 channelBusy:timeavg 0.0017261699999999
attr recordingmode timeavg
attr source org_car2x_veins_modules_mac_sigChannelBusy
par VANET.rsu[0].nic typename "\"org.car2x.veins.modules.nic.Nic80211p\""
par VANET.rsu[0].nic connectionManagerName "\"connectionManager\""
par VANET.rsu[0].mobility typename "\"org.car2x.veins.base.modules.BaseMobility\""
par VANET.rsu[0].mobility notAffectedByHostState true
par VANET.rsu[0].mobility x 2000
par VANET.rsu[0].mobility y 2000
par VANET.rsu[0].mobility z 3
par VANET.rsu[0].mobility xOrientation 1
par VANET.rsu[0].mobility yOrientation 0
par VANET.rsu[0].mobility zOrientation 0
par VANET.rsu[0] typename "\"org.car2x.veins.nodes.RSU\""
par VANET.rsu[0] applType "\"biblioteca_veins.RSUApp\""
par VANET.rsu[0] nicType "\"Nic80211p\""
par VANET typename "\"biblioteca_veins.simulations.VANET\""
par VANET playgroundSizeX 2500m
attr unit m
par VANET playgroundSizeY 2500m
attr unit m
par VANET playgroundSizeZ 50m
attr unit m

