version 3
run WithBeaconing-0-20240911-20:16:01-16364
attr configname WithBeaconing
attr datetime 20240911-20:16:01
attr datetimef 20240911-201601
attr experiment WithBeaconing
attr inifile omnetpp.ini
attr iterationvars ""
attr iterationvarsd ""
attr iterationvarsf ""
attr measurement ""
attr network VANET
attr processid 16364
attr repetition 0
attr replication #0
attr resultdir results
attr runnumber 0
attr seedset 0
config image-path ../../veins/images
config *.rsu[*].appl.sendBeacons true
config *.node[*].appl.sendBeacons true
config cmdenv-express-mode true
config cmdenv-autoflush true
config cmdenv-status-frequency 1s
config **.cmdenv-log-level info
config image-path ../../images
config network VANET
config debug-on-errors true
config print-undisposed true
config sim-time-limit 200s
config **.scalar-recording true
config **.vector-recording true
config *.playgroundSizeX 2500m
config *.playgroundSizeY 2500m
config *.playgroundSizeZ 50m
config *.annotations.draw true
config *.obstacles.obstacles "xmldoc(\"config.xml\", \"//AnalogueModel[@type='SimpleObstacleShadowing']/obstacles\")"
config *.manager.updateInterval 1s
config *.manager.host "\"localhost\""
config *.manager.port 9999
config *.manager.autoShutdown true
config *.manager.launchConfig "xmldoc(\"erlangen.launchd.xml\")"
config *.rsu[0].mobility.x 2000
config *.rsu[0].mobility.y 2000
config *.rsu[0].mobility.z 3
config *.rsu[*].applType "\"biblioteca_veins.RSUApp\""
config *.rsu[*].appl.headerLength "80 bit"
config *.rsu[*].appl.sendBeacons false
config *.rsu[*].appl.dataOnSch false
config *.rsu[*].appl.beaconInterval 1s
config *.rsu[*].appl.beaconUserPriority 7
config *.rsu[*].appl.dataUserPriority 5
config *.rsu[*].nic.phy80211p.antennaOffsetZ "0 m"
config *.connectionManager.sendDirect true
config *.connectionManager.maxInterfDist 2600m
config *.connectionManager.drawMaxIntfDist false
config *.**.nic.mac1609_4.useServiceChannel false
config *.**.nic.mac1609_4.txPower 20mW
config *.**.nic.mac1609_4.bitrate 6Mbps
config *.**.nic.phy80211p.minPowerLevel -110dBm
config *.**.nic.phy80211p.useNoiseFloor true
config *.**.nic.phy80211p.noiseFloor -98dBm
config *.**.nic.phy80211p.decider "xmldoc(\"config.xml\")"
config *.**.nic.phy80211p.analogueModels "xmldoc(\"config.xml\")"
config *.**.nic.phy80211p.usePropagationDelay true
config *.**.nic.phy80211p.antenna "xmldoc(\"antenna.xml\", \"/root/Antenna[@id='monopole']\")"
config *.node[*].nic.phy80211p.antennaOffsetY "0 m"
config *.node[*].nic.phy80211p.antennaOffsetZ "1.895 m"
config *.node[*].applType "\"biblioteca_veins.CarApp\""
config *.node[*].appl.headerLength "80 bit"
config *.node[*].appl.sendBeacons false
config *.node[*].appl.dataOnSch false
config *.node[*].appl.beaconInterval 1s
config *.node[*].veinsmobility.x 0
config *.node[*].veinsmobility.y 0
config *.node[*].veinsmobility.z 0
config *.node[*].veinsmobility.setHostSpeed false
config *.node[*0].veinsmobility.accidentCount 1
config *.node[*0].veinsmobility.accidentStart 73s
config *.node[*0].veinsmobility.accidentDuration 50s

vector 0 VANET.node[0].veinsmobility posx ETV
vector 1 VANET.node[0].veinsmobility posy ETV
vector 2 VANET.node[0].veinsmobility speed ETV
vector 3 VANET.node[0].veinsmobility acceleration ETV
vector 4 VANET.node[0].veinsmobility co2emission ETV
vector 5 VANET.node[1].veinsmobility posx ETV
vector 6 VANET.node[1].veinsmobility posy ETV
vector 7 VANET.node[1].veinsmobility speed ETV
vector 8 VANET.node[1].veinsmobility acceleration ETV
vector 9 VANET.node[1].veinsmobility co2emission ETV
vector 10 VANET.node[2].veinsmobility posx ETV
vector 11 VANET.node[2].veinsmobility posy ETV
vector 12 VANET.node[2].veinsmobility speed ETV
vector 13 VANET.node[2].veinsmobility acceleration ETV
vector 14 VANET.node[2].veinsmobility co2emission ETV
vector 15 VANET.node[3].veinsmobility posx ETV
vector 16 VANET.node[3].veinsmobility posy ETV
vector 17 VANET.node[3].veinsmobility speed ETV
vector 18 VANET.node[3].veinsmobility acceleration ETV
vector 19 VANET.node[3].veinsmobility co2emission ETV
vector 20 VANET.node[4].veinsmobility posx ETV
vector 21 VANET.node[4].veinsmobility posy ETV
vector 22 VANET.node[4].veinsmobility speed ETV
vector 23 VANET.node[4].veinsmobility acceleration ETV
vector 24 VANET.node[4].veinsmobility co2emission ETV
vector 25 VANET.node[5].veinsmobility posx ETV
vector 26 VANET.node[5].veinsmobility posy ETV
vector 27 VANET.node[5].veinsmobility speed ETV
vector 28 VANET.node[5].veinsmobility acceleration ETV
vector 29 VANET.node[5].veinsmobility co2emission ETV
vector 30 VANET.node[6].veinsmobility posx ETV
vector 31 VANET.node[6].veinsmobility posy ETV
vector 32 VANET.node[6].veinsmobility speed ETV
vector 33 VANET.node[6].veinsmobility acceleration ETV
vector 34 VANET.node[6].veinsmobility co2emission ETV
vector 35 VANET.node[7].veinsmobility posx ETV
vector 36 VANET.node[7].veinsmobility posy ETV
vector 37 VANET.node[7].veinsmobility speed ETV
vector 38 VANET.node[7].veinsmobility acceleration ETV
vector 39 VANET.node[7].veinsmobility co2emission ETV
vector 40 VANET.node[8].veinsmobility posx ETV
vector 41 VANET.node[8].veinsmobility posy ETV
vector 42 VANET.node[8].veinsmobility speed ETV
vector 43 VANET.node[8].veinsmobility acceleration ETV
vector 44 VANET.node[8].veinsmobility co2emission ETV
vector 45 VANET.node[9].veinsmobility posx ETV
vector 46 VANET.node[9].veinsmobility posy ETV
vector 47 VANET.node[9].veinsmobility speed ETV
vector 48 VANET.node[9].veinsmobility acceleration ETV
vector 49 VANET.node[9].veinsmobility co2emission ETV
vector 50 VANET.node[10].veinsmobility posx ETV
vector 51 VANET.node[10].veinsmobility posy ETV
vector 52 VANET.node[10].veinsmobility speed ETV
vector 53 VANET.node[10].veinsmobility acceleration ETV
vector 54 VANET.node[10].veinsmobility co2emission ETV
vector 55 VANET.node[11].veinsmobility posx ETV
vector 56 VANET.node[11].veinsmobility posy ETV
vector 57 VANET.node[11].veinsmobility speed ETV
vector 58 VANET.node[11].veinsmobility acceleration ETV
vector 59 VANET.node[11].veinsmobility co2emission ETV
vector 60 VANET.node[12].veinsmobility posx ETV
vector 61 VANET.node[12].veinsmobility posy ETV
vector 62 VANET.node[12].veinsmobility speed ETV
vector 63 VANET.node[12].veinsmobility acceleration ETV
vector 64 VANET.node[12].veinsmobility co2emission ETV
vector 65 VANET.node[13].veinsmobility posx ETV
vector 66 VANET.node[13].veinsmobility posy ETV
vector 67 VANET.node[13].veinsmobility speed ETV
vector 68 VANET.node[13].veinsmobility acceleration ETV
vector 69 VANET.node[13].veinsmobility co2emission ETV
vector 70 VANET.node[14].veinsmobility posx ETV
vector 71 VANET.node[14].veinsmobility posy ETV
vector 72 VANET.node[14].veinsmobility speed ETV
vector 73 VANET.node[14].veinsmobility acceleration ETV
vector 74 VANET.node[14].veinsmobility co2emission ETV
vector 75 VANET.node[15].veinsmobility posx ETV
vector 76 VANET.node[15].veinsmobility posy ETV
vector 77 VANET.node[15].veinsmobility speed ETV
vector 78 VANET.node[15].veinsmobility acceleration ETV
vector 79 VANET.node[15].veinsmobility co2emission ETV
vector 80 VANET.node[16].veinsmobility posx ETV
vector 81 VANET.node[16].veinsmobility posy ETV
vector 82 VANET.node[16].veinsmobility speed ETV
vector 83 VANET.node[16].veinsmobility acceleration ETV
vector 84 VANET.node[16].veinsmobility co2emission ETV
vector 85 VANET.node[17].veinsmobility posx ETV
vector 86 VANET.node[17].veinsmobility posy ETV
vector 87 VANET.node[17].veinsmobility speed ETV
vector 88 VANET.node[17].veinsmobility acceleration ETV
vector 89 VANET.node[17].veinsmobility co2emission ETV
vector 90 VANET.node[18].veinsmobility posx ETV
vector 91 VANET.node[18].veinsmobility posy ETV
vector 92 VANET.node[18].veinsmobility speed ETV
vector 93 VANET.node[18].veinsmobility acceleration ETV
vector 94 VANET.node[18].veinsmobility co2emission ETV
vector 95 VANET.node[19].veinsmobility posx ETV
vector 96 VANET.node[19].veinsmobility posy ETV
vector 97 VANET.node[19].veinsmobility speed ETV
vector 98 VANET.node[19].veinsmobility acceleration ETV
vector 99 VANET.node[19].veinsmobility co2emission ETV
vector 100 VANET.node[20].veinsmobility posx ETV
vector 101 VANET.node[20].veinsmobility posy ETV
vector 102 VANET.node[20].veinsmobility speed ETV
vector 103 VANET.node[20].veinsmobility acceleration ETV
vector 104 VANET.node[20].veinsmobility co2emission ETV
vector 105 VANET.node[21].veinsmobility posx ETV
vector 106 VANET.node[21].veinsmobility posy ETV
vector 107 VANET.node[21].veinsmobility speed ETV
vector 108 VANET.node[21].veinsmobility acceleration ETV
vector 109 VANET.node[21].veinsmobility co2emission ETV
vector 110 VANET.node[22].veinsmobility posx ETV
vector 111 VANET.node[22].veinsmobility posy ETV
vector 112 VANET.node[22].veinsmobility speed ETV
vector 113 VANET.node[22].veinsmobility acceleration ETV
vector 114 VANET.node[22].veinsmobility co2emission ETV
vector 115 VANET.node[23].veinsmobility posx ETV
vector 116 VANET.node[23].veinsmobility posy ETV
vector 117 VANET.node[23].veinsmobility speed ETV
vector 118 VANET.node[23].veinsmobility acceleration ETV
vector 119 VANET.node[23].veinsmobility co2emission ETV
vector 120 VANET.node[24].veinsmobility posx ETV
vector 121 VANET.node[24].veinsmobility posy ETV
vector 122 VANET.node[24].veinsmobility speed ETV
vector 123 VANET.node[24].veinsmobility acceleration ETV
vector 124 VANET.node[24].veinsmobility co2emission ETV
vector 125 VANET.node[25].veinsmobility posx ETV
vector 126 VANET.node[25].veinsmobility posy ETV
vector 127 VANET.node[25].veinsmobility speed ETV
vector 128 VANET.node[25].veinsmobility acceleration ETV
vector 129 VANET.node[25].veinsmobility co2emission ETV
vector 130 VANET.node[26].veinsmobility posx ETV
vector 131 VANET.node[26].veinsmobility posy ETV
vector 132 VANET.node[26].veinsmobility speed ETV
vector 133 VANET.node[26].veinsmobility acceleration ETV
vector 134 VANET.node[26].veinsmobility co2emission ETV
vector 135 VANET.node[27].veinsmobility posx ETV
vector 136 VANET.node[27].veinsmobility posy ETV
vector 137 VANET.node[27].veinsmobility speed ETV
vector 138 VANET.node[27].veinsmobility acceleration ETV
vector 139 VANET.node[27].veinsmobility co2emission ETV
vector 140 VANET.node[28].veinsmobility posx ETV
vector 141 VANET.node[28].veinsmobility posy ETV
vector 142 VANET.node[28].veinsmobility speed ETV
vector 143 VANET.node[28].veinsmobility acceleration ETV
vector 144 VANET.node[28].veinsmobility co2emission ETV
vector 145 VANET.node[29].veinsmobility posx ETV
vector 146 VANET.node[29].veinsmobility posy ETV
vector 147 VANET.node[29].veinsmobility speed ETV
vector 148 VANET.node[29].veinsmobility acceleration ETV
vector 149 VANET.node[29].veinsmobility co2emission ETV
vector 150 VANET.node[30].veinsmobility posx ETV
vector 151 VANET.node[30].veinsmobility posy ETV
vector 152 VANET.node[30].veinsmobility speed ETV
vector 153 VANET.node[30].veinsmobility acceleration ETV
vector 154 VANET.node[30].veinsmobility co2emission ETV
vector 155 VANET.node[31].veinsmobility posx ETV
vector 156 VANET.node[31].veinsmobility posy ETV
vector 157 VANET.node[31].veinsmobility speed ETV
vector 158 VANET.node[31].veinsmobility acceleration ETV
vector 159 VANET.node[31].veinsmobility co2emission ETV
vector 160 VANET.node[32].veinsmobility posx ETV
vector 161 VANET.node[32].veinsmobility posy ETV
vector 162 VANET.node[32].veinsmobility speed ETV
vector 163 VANET.node[32].veinsmobility acceleration ETV
vector 164 VANET.node[32].veinsmobility co2emission ETV
vector 165 VANET.node[33].veinsmobility posx ETV
vector 166 VANET.node[33].veinsmobility posy ETV
vector 167 VANET.node[33].veinsmobility speed ETV
vector 168 VANET.node[33].veinsmobility acceleration ETV
vector 169 VANET.node[33].veinsmobility co2emission ETV
vector 170 VANET.node[34].veinsmobility posx ETV
vector 171 VANET.node[34].veinsmobility posy ETV
vector 172 VANET.node[34].veinsmobility speed ETV
vector 173 VANET.node[34].veinsmobility acceleration ETV
vector 174 VANET.node[34].veinsmobility co2emission ETV
vector 175 VANET.node[35].veinsmobility posx ETV
vector 176 VANET.node[35].veinsmobility posy ETV
vector 177 VANET.node[35].veinsmobility speed ETV
vector 178 VANET.node[35].veinsmobility acceleration ETV
vector 179 VANET.node[35].veinsmobility co2emission ETV
vector 180 VANET.node[36].veinsmobility posx ETV
vector 181 VANET.node[36].veinsmobility posy ETV
vector 182 VANET.node[36].veinsmobility speed ETV
vector 183 VANET.node[36].veinsmobility acceleration ETV
vector 184 VANET.node[36].veinsmobility co2emission ETV
vector 185 VANET.node[37].veinsmobility posx ETV
vector 186 VANET.node[37].veinsmobility posy ETV
vector 187 VANET.node[37].veinsmobility speed ETV
vector 188 VANET.node[37].veinsmobility acceleration ETV
vector 189 VANET.node[37].veinsmobility co2emission ETV
vector 190 VANET.node[38].veinsmobility posx ETV
vector 191 VANET.node[38].veinsmobility posy ETV
vector 192 VANET.node[38].veinsmobility speed ETV
vector 193 VANET.node[38].veinsmobility acceleration ETV
vector 194 VANET.node[38].veinsmobility co2emission ETV
vector 195 VANET.node[39].veinsmobility posx ETV
vector 196 VANET.node[39].veinsmobility posy ETV
vector 197 VANET.node[39].veinsmobility speed ETV
vector 198 VANET.node[39].veinsmobility acceleration ETV
vector 199 VANET.node[39].veinsmobility co2emission ETV
vector 200 VANET.node[40].veinsmobility posx ETV
vector 201 VANET.node[40].veinsmobility posy ETV
vector 202 VANET.node[40].veinsmobility speed ETV
vector 203 VANET.node[40].veinsmobility acceleration ETV
vector 204 VANET.node[40].veinsmobility co2emission ETV
vector 205 VANET.node[41].veinsmobility posx ETV
vector 206 VANET.node[41].veinsmobility posy ETV
vector 207 VANET.node[41].veinsmobility speed ETV
vector 208 VANET.node[41].veinsmobility acceleration ETV
vector 209 VANET.node[41].veinsmobility co2emission ETV
vector 210 VANET.node[42].veinsmobility posx ETV
vector 211 VANET.node[42].veinsmobility posy ETV
vector 212 VANET.node[42].veinsmobility speed ETV
vector 213 VANET.node[42].veinsmobility acceleration ETV
vector 214 VANET.node[42].veinsmobility co2emission ETV
vector 215 VANET.node[43].veinsmobility posx ETV
vector 216 VANET.node[43].veinsmobility posy ETV
vector 217 VANET.node[43].veinsmobility speed ETV
vector 218 VANET.node[43].veinsmobility acceleration ETV
vector 219 VANET.node[43].veinsmobility co2emission ETV
vector 220 VANET.node[44].veinsmobility posx ETV
vector 221 VANET.node[44].veinsmobility posy ETV
vector 222 VANET.node[44].veinsmobility speed ETV
vector 223 VANET.node[44].veinsmobility acceleration ETV
vector 224 VANET.node[44].veinsmobility co2emission ETV
vector 225 VANET.node[45].veinsmobility posx ETV
vector 226 VANET.node[45].veinsmobility posy ETV
vector 227 VANET.node[45].veinsmobility speed ETV
vector 228 VANET.node[45].veinsmobility acceleration ETV
vector 229 VANET.node[45].veinsmobility co2emission ETV
vector 230 VANET.node[46].veinsmobility posx ETV
vector 231 VANET.node[46].veinsmobility posy ETV
vector 232 VANET.node[46].veinsmobility speed ETV
vector 233 VANET.node[46].veinsmobility acceleration ETV
vector 234 VANET.node[46].veinsmobility co2emission ETV
vector 235 VANET.node[47].veinsmobility posx ETV
vector 236 VANET.node[47].veinsmobility posy ETV
vector 237 VANET.node[47].veinsmobility speed ETV
vector 238 VANET.node[47].veinsmobility acceleration ETV
vector 239 VANET.node[47].veinsmobility co2emission ETV
vector 240 VANET.node[48].veinsmobility posx ETV
vector 241 VANET.node[48].veinsmobility posy ETV
vector 242 VANET.node[48].veinsmobility speed ETV
vector 243 VANET.node[48].veinsmobility acceleration ETV
vector 244 VANET.node[48].veinsmobility co2emission ETV
vector 245 VANET.node[49].veinsmobility posx ETV
vector 246 VANET.node[49].veinsmobility posy ETV
vector 247 VANET.node[49].veinsmobility speed ETV
vector 248 VANET.node[49].veinsmobility acceleration ETV
vector 249 VANET.node[49].veinsmobility co2emission ETV
vector 250 VANET.node[50].veinsmobility posx ETV
vector 251 VANET.node[50].veinsmobility posy ETV
vector 252 VANET.node[50].veinsmobility speed ETV
vector 253 VANET.node[50].veinsmobility acceleration ETV
vector 254 VANET.node[50].veinsmobility co2emission ETV
vector 255 VANET.node[51].veinsmobility posx ETV
vector 256 VANET.node[51].veinsmobility posy ETV
vector 257 VANET.node[51].veinsmobility speed ETV
vector 258 VANET.node[51].veinsmobility acceleration ETV
vector 259 VANET.node[51].veinsmobility co2emission ETV
vector 260 VANET.node[52].veinsmobility posx ETV
vector 261 VANET.node[52].veinsmobility posy ETV
vector 262 VANET.node[52].veinsmobility speed ETV
vector 263 VANET.node[52].veinsmobility acceleration ETV
vector 264 VANET.node[52].veinsmobility co2emission ETV
vector 265 VANET.node[53].veinsmobility posx ETV
vector 266 VANET.node[53].veinsmobility posy ETV
vector 267 VANET.node[53].veinsmobility speed ETV
vector 268 VANET.node[53].veinsmobility acceleration ETV
vector 269 VANET.node[53].veinsmobility co2emission ETV
vector 270 VANET.node[54].veinsmobility posx ETV
vector 271 VANET.node[54].veinsmobility posy ETV
vector 272 VANET.node[54].veinsmobility speed ETV
vector 273 VANET.node[54].veinsmobility acceleration ETV
vector 274 VANET.node[54].veinsmobility co2emission ETV
vector 275 VANET.node[55].veinsmobility posx ETV
vector 276 VANET.node[55].veinsmobility posy ETV
vector 277 VANET.node[55].veinsmobility speed ETV
vector 278 VANET.node[55].veinsmobility acceleration ETV
vector 279 VANET.node[55].veinsmobility co2emission ETV
vector 280 VANET.node[56].veinsmobility posx ETV
vector 281 VANET.node[56].veinsmobility posy ETV
vector 282 VANET.node[56].veinsmobility speed ETV
vector 283 VANET.node[56].veinsmobility acceleration ETV
vector 284 VANET.node[56].veinsmobility co2emission ETV
vector 285 VANET.node[57].veinsmobility posx ETV
vector 286 VANET.node[57].veinsmobility posy ETV
vector 287 VANET.node[57].veinsmobility speed ETV
vector 288 VANET.node[57].veinsmobility acceleration ETV
vector 289 VANET.node[57].veinsmobility co2emission ETV
vector 290 VANET.node[58].veinsmobility posx ETV
vector 291 VANET.node[58].veinsmobility posy ETV
vector 292 VANET.node[58].veinsmobility speed ETV
vector 293 VANET.node[58].veinsmobility acceleration ETV
vector 294 VANET.node[58].veinsmobility co2emission ETV
vector 295 VANET.node[59].veinsmobility posx ETV
vector 296 VANET.node[59].veinsmobility posy ETV
vector 297 VANET.node[59].veinsmobility speed ETV
vector 298 VANET.node[59].veinsmobility acceleration ETV
vector 299 VANET.node[59].veinsmobility co2emission ETV
vector 300 VANET.node[60].veinsmobility posx ETV
vector 301 VANET.node[60].veinsmobility posy ETV
vector 302 VANET.node[60].veinsmobility speed ETV
vector 303 VANET.node[60].veinsmobility acceleration ETV
vector 304 VANET.node[60].veinsmobility co2emission ETV
vector 305 VANET.node[61].veinsmobility posx ETV
vector 306 VANET.node[61].veinsmobility posy ETV
vector 307 VANET.node[61].veinsmobility speed ETV
vector 308 VANET.node[61].veinsmobility acceleration ETV
vector 309 VANET.node[61].veinsmobility co2emission ETV
vector 310 VANET.node[62].veinsmobility posx ETV
vector 311 VANET.node[62].veinsmobility posy ETV
vector 312 VANET.node[62].veinsmobility speed ETV
vector 313 VANET.node[62].veinsmobility acceleration ETV
vector 314 VANET.node[62].veinsmobility co2emission ETV
vector 315 VANET.node[63].veinsmobility posx ETV
vector 316 VANET.node[63].veinsmobility posy ETV
vector 317 VANET.node[63].veinsmobility speed ETV
vector 318 VANET.node[63].veinsmobility acceleration ETV
vector 319 VANET.node[63].veinsmobility co2emission ETV
vector 320 VANET.node[64].veinsmobility posx ETV
vector 321 VANET.node[64].veinsmobility posy ETV
vector 322 VANET.node[64].veinsmobility speed ETV
vector 323 VANET.node[64].veinsmobility acceleration ETV
vector 324 VANET.node[64].veinsmobility co2emission ETV
vector 325 VANET.node[65].veinsmobility posx ETV
vector 326 VANET.node[65].veinsmobility posy ETV
vector 327 VANET.node[65].veinsmobility speed ETV
vector 328 VANET.node[65].veinsmobility acceleration ETV
vector 329 VANET.node[65].veinsmobility co2emission ETV
vector 330 VANET.node[66].veinsmobility posx ETV
vector 331 VANET.node[66].veinsmobility posy ETV
vector 332 VANET.node[66].veinsmobility speed ETV
0	11	1	2414.8476884116
0	40	2	2411.8243290941
0	69	3	2407.1592244543
0	98	4	2402.288200066
0	158	5	2396.1394374635
0	218	6	2388.6993875942
0	279	7	2379.889221533
0	384	8	2370.1207192459
0	490	9	2360.3141803208
0	596	10	2350.5099475634
0	757	11	2341.0010868867
0	918	12	2334.5620136983
0	1081	13	2337.6803779466
0	1303	14	2348.3497968862
0	1526	15	2358.6961674725
0	1750	16	2371.6616533546
0	2046	17	2385.4706804305
0	2342	18	2399.3588350668
0	2638	19	2412.4541998667
0	3018	20	2421.4418196582
0	3400	21	2428.417609864
0	3782	22	2431.468930052
0	4258	23	2433.1513403206
0	4736	24	2435.1237040944
0	5215	25	2437.2173147583
0	5809	26	2438.6437980286
0	6396	27	2439.5074353185
0	6983	28	2440.517813261
0	7690	29	2441.5286354903
0	8398	30	2442.5392864447
0	9106	31	2443.5505626462
0	9949	32	2444.5611125134
0	10781	33	2445.5724211388
0	11614	34	2446.5834693939
0	12592	35	2447.5934051003
0	13560	36	2448.6036931522
0	14513	37	2449.6148620235
0	15617	38	2450.6248001783
0	16701	39	2449.5880553933
0	17770	40	2448.4757357414
0	18995	41	2447.3635385588
0	20217	42	2446.250303259
0	21438	43	2445.1365203297
0	22845	44	2444.0235521834
0	24246	45	2442.9111769209
0	25653	46	2441.7982721732
0	27243	47	2440.6856421625
0	28818	48	2439.7151308154
0	30377	49	2438.7725309408
0	32136	50	2437.9056889905
0	33866	51	2432.8785054281
0	35589	52	2422.5273191113
0	37522	53	2409.439604845
0	39438	54	2395.517893619
0	41353	55	2381.592286239
0	43490	56	2367.6659531716
0	45620	57	2353.7601239877
0	47761	58	2339.8337569573
0	50111	59	2325.9069679289
0	52453	60	2311.9542202253
0	54773	61	2298.0325140053
0	57320	62	2284.0857072632
0	59847	63	2270.1754193477
0	62371	64	2256.2378749268
0	65101	65	2242.3725172955
0	67826	66	2228.5623045168
0	70545	67	2214.8068758136
0	73456	68	2201.6159272967
0	76320	69	2188.41049514
0	79141	70	2175.4595331684
0	82166	71	2163.4460695032
0	85130	72	2152.2029822947
0	88071	73	2144.5427125699
0	91264	74	2140.7603855053
0	94444	75	2140.3234504706
0	97648	76	2140.3234504706
0	101098	77	2140.3234504706
0	104538	78	2140.3234504706
0	107989	79	2140.3234504706
0	111704	80	2140.3234504706
0	115386	81	2140.3234504706
0	119041	82	2140.3234504706
0	122992	83	2140.3234504706
0	126930	84	2140.3234504706
0	131003	85	2140.3234504706
0	135227	86	2140.3234504706
0	141279	87	2140.3234504706
0	145470	88	2140.3234504706
0	153129	89	2140.3234504706
0	157550	90	2140.3234504706
0	162625	91	2140.3234504706
0	167322	92	2140.3234504706
0	172003	93	2140.3234504706
0	176668	94	2140.3234504706
0	181609	95	2140.3234504706
0	186497	96	2140.3234504706
0	191352	97	2140.3234504706
0	196458	98	2140.3234504706
0	201534	99	2140.3234504706
0	206562	100	2140.3234504706
0	211839	101	2140.3234504706
0	217111	102	2140.3234504706
0	222347	103	2140.3234504706
0	227899	104	2140.3234504706
0	233471	105	2140.3234504706
0	239073	106	2140.3234504706
0	245057	107	2140.3234504706
0	251072	108	2140.3234504706
0	257126	109	2140.3234504706
0	263486	110	2140.3234504706
0	269821	111	2140.3234504706
0	276141	112	2140.3234504706
0	282793	113	2140.3234504706
0	289437	114	2140.3234504706
0	296042	115	2140.3234504706
0	302959	116	2140.3234504706
0	309832	117	2140.3234504706
0	316651	118	2140.3234504706
0	323772	119	2140.3234504706
0	330799	120	2140.3234504706
0	337741	121	2140.3234504706
0	344962	122	2140.3234504706
0	352141	123	2140.3234504706
0	359218	124	2139.2991757134
0	366622	125	2136.740978117
0	373959	126	2133.0437330272
0	381213	127	2128.0124995244
0	388842	128	2121.6776393328
0	396379	129	2113.9053156064
0	403862	130	2104.7718132839
0	411681	131	2095.2426245916
0	419427	132	2085.7055441276
0	427070	133	2076.184415311
0	435138	134	2066.655969861
0	443122	135	2057.1336877497
0	451063	136	2047.5928952894
0	459347	137	2037.6052178263
0	467600	138	2027.631729265
0	475770	139	2017.6146613889
0	484360	140	2007.6105792237
0	492884	141	1997.6002182011
0	501362	142	1987.6009788642
0	510249	143	1977.6126411132
0	519052	144	1967.6241748743
0	527805	145	1957.6315686307
0	536997	146	1947.6459181812
0	546141	147	1937.6582154317
0	555287	148	1927.928336862
0	564883	149	1918.2020256331
0	574475	150	1908.4694342383
0	584054	151	1898.729315949
0	594123	152	1889.0051916379
0	604148	153	1879.261754136
0	614160	154	1869.5281309806
0	624538	155	1859.7936109763
0	634844	156	1850.060784751
0	645030	157	1840.3252135735
0	655643	158	1830.3508783798
0	666150	159	1820.2469987283
0	676620	160	1810.1380447441
0	687458	161	1800.1588395836
0	698242	162	1790.1967647249
0	709041	163	1780.2514425659
0	720238	164	1770.2963918832
0	731401	165	1760.3474435109
0	742577	166	1750.3920021198
0	754114	167	1740.4321024349
0	765567	168	1730.4736489538
0	777003	169	1720.5248935258
0	788777	170	1710.5761599386
0	800381	171	1700.6158889014
0	811946	172	1690.6676647231
0	823890	173	1680.7271906608
0	835783	174	1670.7628719405
0	847905	175	1660.8197170426
0	860274	176	1650.8730225366
0	875560	177	1640.9069306322
0	887884	178	1630.9622310679
0	905968	179	1621.0131410429
0	918647	180	1611.2234621063
0	932377	181	1601.4105973039
0	945529	182	1591.5875026872
0	958856	183	1581.773858707
0	971830	184	1571.9569451315
0	985196	185	1562.134478421
0	998518	186	1551.7112002999
0	1011906	187	1541.175700404
0	1025709	188	1530.6188701534
0	1039457	189	1520.0613357038
0	1053210	190	1509.5105544658
0	1067461	191	1498.4885757907
0	1081680	192	1487.0678394384
0	1095868	193	1475.6648106688
0	1110540	194	1464.2628301153
0	1125210	195	1452.8377002759
0	1139875	196	1440.6556722911
0	1154979	197	1428.0474191858
0	1170051	198	1415.4089725766
0	1185112	199	1402.7771531333
0	1200665	200	1389.5143186213
1	11	1	1578.4613427464
1	40	2	1579.5715045081
1	69	3	1581.5561876604
1	98	4	1586.4898643075
1	158	5	1592.7177137369
1	218	6	1600.2534592729
1	279	7	1609.1769437566
1	384	8	1619.0710908128
1	490	9	1629.0037637418
1	596	10	1638.9341008412
1	757	11	1649.1129276818
1	918	12	1661.0453354148
1	1081	13	1673.5713017788
1	1303	14	1682.4825292248
1	1526	15	1691.8131453674
1	1750	16	1695.5671389326
1	2046	17	1697.3762977775
1	2342	18	1698.7149431584
1	2638	19	1699.9531973498
1	3018	20	1700.8030368192
1	3400	21	1701.4822415169
1	3782	22	1709.488976148
1	4258	23	1720.5600911779
1	4736	24	1733.5392477075
1	5215	25	1747.3162704222
1	5809	26	1761.1584832035
1	6396	27	1775.0702432813
1	6983	28	1788.9649324082
1	7690	29	1802.8657313576
1	8398	30	1816.7641749373
1	9106	31	1830.6712168986
1	9949	32	1844.5682703312
1	10781	33	1858.4757581847
1	11614	34	1872.3796654344
1	12592	35	1886.2682729438
1	13560	36	1900.1617258992
1	14513	37	1914.0672918586
1	15617	38	1927.95593304
1	16701	39	1941.8192613758
1	17770	40	1955.7024557721
1	18995	41	1969.5841215905
1	20217	42	1983.4787444612
1	21438	43	1997.3802024601
1	22845	44	2011.2714909082
1	24246	45	2025.1553793969
1	25653	46	2039.0458765477
1	27243	47	2052.9329446238
1	28818	48	2066.8462265795
1	30377	49	2080.7728807703
1	32136	50	2094.6498483503
1	33866	51	2107.3969092406
1	35589	52	2116.410831539
1	37522	53	2120.9360540062
1	39438	54	2120.5048353085
1	41353	55	2120.0344859883
1	43490	56	2119.5641121576
1	45620	57	2119.0944308629
1	47761	58	2118.6240558857
1	50111	59	2118.1536666537
1	52453	60	2117.6824006466
1	54773	61	2117.2121830918
1	57320	62	2116.7411177447
1	59847	63	2116.2712858524
1	62371	64	2115.8005333487
1	65101	65	2114.7955725584
1	67826	66	2112.8371776454
1	70545	67	2110.6451732265
1	73456	68	2106.1714176713
1	76320	69	2101.6927499389
1	79141	70	2096.6090699211
1	82166	71	2089.5369335469
1	85130	72	2082.9183056299
1	88071	73	2078.4088257942
1	91264	74	2076.1822295729
1	94444	75	2075.9250128167
1	97648	76	2075.9250128167
1	101098	77	2075.9250128167
1	104538	78	2075.9250128167
1	107989	79	2075.9250128167
1	111704	80	2075.9250128167
1	115386	81	2075.9250128167
1	119041	82	2075.9250128167
1	122992	83	2075.9250128167
1	126930	84	2075.9250128167
1	131003	85	2075.9250128167
1	135227	86	2075.9250128167
1	141279	87	2075.9250128167
1	145470	88	2075.9250128167
1	153129	89	2075.9250128167
1	157550	90	2075.9250128167
1	162625	91	2075.9250128167
1	167322	92	2075.9250128167
1	172003	93	2075.9250128167
1	176668	94	2075.9250128167
1	181609	95	2075.9250128167
1	186497	96	2075.9250128167
1	191352	97	2075.9250128167
1	196458	98	2075.9250128167
1	201534	99	2075.9250128167
1	206562	100	2075.9250128167
1	211839	101	2075.9250128167
1	217111	102	2075.9250128167
1	222347	103	2075.9250128167
1	227899	104	2075.9250128167
1	233471	105	2075.9250128167
1	239073	106	2075.9250128167
1	245057	107	2075.9250128167
1	251072	108	2075.9250128167
1	257126	109	2075.9250128167
1	263486	110	2075.9250128167
1	269821	111	2075.9250128167
1	276141	112	2075.9250128167
1	282793	113	2075.9250128167
1	289437	114	2075.9250128167
1	296042	115	2075.9250128167
1	302959	116	2075.9250128167
1	309832	117	2075.9250128167
1	316651	118	2075.9250128167
1	323772	119	2075.9250128167
1	330799	120	2075.9250128167
1	337741	121	2075.9250128167
1	344962	122	2075.9250128167
1	352141	123	2075.9250128167
1	359218	124	2075.1267298609
1	366622	125	2072.866368236
1	373959	126	2068.9195549712
1	381213	127	2063.5487075839
1	388842	128	2056.7862372501
1	396379	129	2048.4892729856
1	403862	130	2038.7392490497
1	411681	131	2028.5668294709
1	419427	132	2018.3859854173
1	427070	133	2008.2221697653
1	435138	134	1998.0505435988
1	443122	135	1987.8854968026
1	451063	136	1977.7462070258
1	459347	137	1968.037196531
1	467600	138	1958.3419790519
1	475770	139	1948.6043981677
1	484360	140	1938.8794406792
1	492884	141	1929.1483795205
1	501362	142	1919.4281297401
1	510249	143	1909.7184773795
1	519052	144	1900.0087001156
1	527805	145	1890.2948983582
1	536997	146	1880.5878583211
1	546141	147	1870.8776764767
1	555287	148	1860.9070784971
1	564883	149	1850.9401361141
1	574475	150	1840.9667581934
1	584054	151	1830.9856671607
1	594123	152	1821.0209658006
1	604148	153	1811.0364734372
1	614160	154	1801.0620382298
1	624538	155	1791.0866839848
1	634844	156	1781.1130654234
1	645030	157	1771.1366339987
1	655643	158	1761.3864351111
1	666150	159	1751.7903250856
1	676620	160	1742.1893957369
1	687458	161	1732.4389499296
1	698242	162	1722.675991795
1	709041	163	1712.9294515159
1	720238	164	1703.1733771618
1	731401	165	1693.4232831486
1	742577	166	1683.6668258961
1	754114	167	1673.9059994593
1	765567	168	1664.1465903204
1	777003	169	1654.3966853945
1	788777	170	1644.6468018731
1	800381	171	1634.8856115062
1	811946	172	1625.1362272119
1	823890	173	1615.3944381289
1	835783	174	1605.6292809825
1	847905	175	1595.884864646
1	860274	176	1586.1369794505
1	875560	177	1576.3700845605
1	887884	178	1566.6241544327
1	905968	179	1556.8739215974
1	918647	180	1547.1035578614
1	932377	181	1537.1979243793
1	945529	182	1527.2819643728
1	958856	183	1517.3755443469
1	971830	184	1507.4658238152
1	985196	185	1497.5504976502
1	998518	186	1488.2895413144
1	1011906	187	1479.1762772417
1	1025709	188	1470.0445622969
1	1039457	189	1460.912238217
1	1053210	190	1451.7857557014
1	1067461	191	1443.2408685256
1	1081680	192	1435.1924371999
1	1095868	193	1427.1564847762
1	1110540	194	1419.1212710524
1	1125210	195	1411.0697435439
1	1139875	196	1404.3437243653
1	1154979	197	1398.3994412022
1	1170051	198	1392.4409230193
1	1185112	199	1386.4855292775
1	1200665	200	1382.138503409
2	40	2	4.1061966058897
2	69	3	6.0195495591482
2	98	4	7.7148368984793
2	158	5	9.5879868385225
2	218	6	11.391389363371
2	279	7	13.513839789145
2	384	8	13.99235115225
2	490	9	13.890224446259
2	596	10	13.976677174468
2	757	11	13.994826577434
2	918	12	13.923680325528
2	1081	13	13.923542996629
2	1303	14	13.91007151508
2	1526	15	13.964598868005
2	1750	16	13.995233640105
2	2046	17	13.952304350403
2	2342	18	13.956911946491
2	2638	19	11.503494614513
2	3018	20	7.0034946145128
2	3400	21	7.8970062485022
2	3782	22	10.10483181514
2	4258	23	11.990706169653
2	4736	24	13.981089308816
2	5215	25	13.965594365916
2	5809	26	13.989059597438
2	6396	27	13.956378436291
2	6983	28	13.910982951869
2	7690	29	13.88918493646
2	8398	30	13.908189346099
2	9106	31	13.983992603337
2	9949	32	13.971500478752
2	10781	33	13.873081948087
2	11614	34	13.985133641064
2	12592	35	13.886848415199
2	13560	36	13.876205747321
2	14513	37	13.967912819823
2	15617	38	13.871047234884
2	16701	39	13.89239756926
2	17770	40	13.872267716837
2	18995	41	13.999815066161
2	20217	42	13.964707984752
2	21438	43	13.906584702837
2	22845	44	13.922364303169
2	24246	45	13.929034490574
2	25653	46	13.93922677479
2	27243	47	13.924399639922
2	28818	48	13.96850544848
2	30377	49	13.986686690277
2	32136	50	13.935194088209
2	33866	51	13.930097484484
2	35589	52	13.948393711536
2	37522	53	13.882971800906
2	39438	54	13.87138918183
2	41353	55	13.933780807857
2	43490	56	13.942265776542
2	45620	57	13.95140511482
2	47761	58	13.886548467774
2	50111	59	13.920721456567
2	52453	60	13.906796863726
2	54773	61	13.917803910668
2	57320	62	13.924582225601
2	59847	63	13.959688465288
2	62371	64	13.957318032989
2	65101	65	13.940553226951
2	67826	66	13.879855337965
2	70545	67	13.977758804618
2	73456	68	13.914176650653
2	76320	69	13.928041475909
2	79141	70	13.977535404016
2	82166	71	13.928572678084
2	85130	72	11.364046791626
2	88071	73	6.8640467916256
2	91264	74	2.3640467916256
2	94444	75	0
2	97648	76	0
2	101098	77	0
2	104538	78	0
2	107989	79	0
2	111704	80	0
2	115386	81	0
2	119041	82	0
2	122992	83	0
2	126930	84	0
2	131003	85	0
2	135227	86	0
2	141279	87	0
2	145470	88	0
2	153129	89	0
2	157550	90	0
2	162625	91	0
2	167322	92	0
2	172003	93	0
2	176668	94	0
2	181609	95	0
2	186497	96	0
2	191352	97	0
2	196458	98	0
2	201534	99	0
2	206562	100	0
2	211839	101	0
2	217111	102	0
2	222347	103	0
2	227899	104	0
2	233471	105	0
2	239073	106	0
2	245057	107	0
2	251072	108	0
2	257126	109	0
2	263486	110	0
2	269821	111	0
2	276141	112	0
2	282793	113	0
2	289437	114	0
2	296042	115	0
2	302959	116	0
2	309832	117	0
2	316651	118	0
2	323772	119	0
2	330799	120	0
2	337741	121	0
2	344962	122	0
2	352141	123	0
2	359218	124	2.2219942613752
2	366622	125	4.3816652589273
2	373959	126	6.271098397682
2	381213	127	8.1846742143464
2	388842	128	10.238758130733
2	396379	129	12.368734642219
2	403862	130	13.962109271805
2	411681	131	13.914205637665
2	419427	132	13.944517719341
2	427070	133	13.932432430719
2	435138	134	13.953789253703
2	443122	135	13.898576378347
2	451063	136	13.923362842468
2	459347	137	13.87346287617
2	467600	138	13.915164393331
2	475770	139	13.962726174931
2	484360	140	13.991457488488
2	492884	141	13.93669091891
2	501362	142	13.946966261289
2	510249	143	13.874023362922
2	519052	144	13.888220233922
2	527805	145	13.910431938935
2	536997	146	13.915207219925
2	546141	147	13.934733790359
2	555287	148	13.947823643878
2	564883	149	13.938765405121
2	574475	150	13.884018056742
2	584054	151	13.98566509519
2	594123	152	13.928810386665
2	604148	153	13.878287675793
2	614160	154	13.960782518599
2	624538	155	13.994947284004
2	634844	156	13.975011026422
2	645030	157	13.946519697749
2	655643	158	13.954196195363
2	666150	159	13.908575135735
2	676620	160	13.893555851928
2	687458	161	13.925646835428
2	698242	162	13.956856088985
2	709041	163	13.935565363681
2	720238	164	13.981824356054
2	731401	165	13.960839076294
2	742577	166	13.963425049901
2	754114	167	13.944366896641
2	765567	168	13.993980701885
2	777003	169	13.936356577491
2	788777	170	13.904627814977
2	800381	171	13.901456429872
2	811946	172	13.877600607274
2	823890	173	13.896702704621
2	835783	174	13.881392423632
2	847905	175	13.958875037138
2	860274	176	13.945687377716
2	875560	177	13.966000350199
2	887884	178	13.970536190735
2	905968	179	13.916551416086
2	918647	180	13.93610556707
2	932377	181	13.939164152481
2	945529	182	13.944239728614
2	958856	183	13.908562719475
2	971830	184	13.872485791091
2	985196	185	13.99865511379
2	998518	186	13.92553616784
2	1011906	187	13.916018098511
2	1025709	188	13.981679034531
2	1039457	189	13.988185767711
2	1053210	190	13.923184596703
2	1067461	191	13.883733638397
2	1081680	192	13.892227361612
2	1095868	193	13.876141575957
2	1110540	194	13.950034722143
2	1125210	195	13.883154610386
2	1139875	196	13.946562061303
2	1154979	197	13.880639836157
2	1170051	198	13.967846674775
2	1185112	199	13.891077681468
2	1200665	200	13.880399412508
3	69	3	1.9133529532584
3	98	4	1.6952873393311
3	158	5	1.8731499400432
3	218	6	1.8034025248489
3	279	7	2.1224504257739
3	384	8	0.47851136310433
3	490	9	-0.1021267059911
3	596	10	0.086452728209551
3	757	11	0.018149402965792
3	918	12	-0.071146251906175
3	1081	13	-0.0001373288989992
3	1303	14	-0.013471481548622
3	1526	15	0.054527352924923
3	1750	16	0.03063477210002
3	2046	17	-0.04292928970186
3	2342	18	0.0046075960877356
3	2638	19	-2.4534173319781
3	3018	20	-4.5
3	3400	21	0.8935116339894
3	3782	22	2.2078255666373
3	4258	23	1.8858743545134
3	4736	24	1.9903831391631
3	5215	25	-0.01549494290026
3	5809	26	0.023465231521987
3	6396	27	-0.032681161146611
3	6983	28	-0.045395484422334
3	7690	29	-0.021798015409148
3	8398	30	0.019004409639164
3	9106	31	0.075803257238585
3	9949	32	-0.012492124584968
3	10781	33	-0.098418530665803
3	11614	34	0.11205169297755
3	12592	35	-0.098285225864965
3	13560	36	-0.01064266787842
3	14513	37	0.091707072502468
3	15617	38	-0.096865584938786
3	16701	39	0.021350334375166
3	17770	40	-0.020129852422979
3	18995	41	0.12754734932445
3	20217	42	-0.035107081409079
3	21438	43	-0.058123281914741
3	22845	44	0.015779600332026
3	24246	45	0.0066701874043797
3	25653	46	0.010192284216172
3	27243	47	-0.014827134867664
3	28818	48	0.044105808557942
3	30377	49	0.018181241797283
3	32136	50	-0.051492602068466
3	33866	51	-0.0050966037251055
3	35589	52	0.018296227052343
3	37522	53	-0.065421910630539
3	39438	54	-0.011582619075197
3	41353	55	0.062391626026946
3	43490	56	0.0084849686850799
3	45620	57	0.0091393382777465
3	47761	58	-0.064856647045817
3	50111	59	0.034172988792415
3	52453	60	-0.013924592840485
3	54773	61	0.011007046941668
3	57320	62	0.0067783149331806
3	59847	63	0.035106239686721
3	62371	64	-0.0023704322986315
3	65101	65	-0.016764806038699
3	67826	66	-0.060697888985743
3	70545	67	0.097903466653079
3	73456	68	-0.063582153965253
3	76320	69	0.013864825256169
3	79141	70	0.049493928106967
3	82166	71	-0.048962725931778
3	85130	72	-2.5645258864584
3	88071	73	-4.5
3	91264	74	-4.5
3	94444	75	-2.3640467916256
3	97648	76	0
3	101098	77	0
3	104538	78	0
3	107989	79	0
3	111704	80	0
3	115386	81	0
3	119041	82	0
3	122992	83	0
3	126930	84	0
3	131003	85	0
3	135227	86	0
3	141279	87	0
3	145470	88	0
3	153129	89	0
3	157550	90	0
3	162625	91	0
3	167322	92	0
3	172003	93	0
3	176668	94	0
3	181609	95	0
3	186497	96	0
3	191352	97	0
3	196458	98	0
3	201534	99	0
3	206562	100	0
3	211839	101	0
3	217111	102	0
3	222347	103	0
3	227899	104	0
3	233471	105	0
3	239073	106	0
3	245057	107	0
3	251072	108	0
3	257126	109	0
3	263486	110	0
3	269821	111	0
3	276141	112	0
3	282793	113	0
3	289437	114	0
3	296042	115	0
3	302959	116	0
3	309832	117	0
3	316651	118	0
3	323772	119	0
3	330799	120	0
3	337741	121	0
3	344962	122	0
3	352141	123	0
3	359218	124	2.2219942613752
3	366622	125	2.1596709975521
3	373959	126	1.8894331387547
3	381213	127	1.9135758166644
3	388842	128	2.0540839163866
3	396379	129	2.1299765114859
3	403862	130	1.593374629586
3	411681	131	-0.047903634139804
3	419427	132	0.030312081675511
3	427070	133	-0.012085288621019
3	435138	134	0.021356822983362
3	443122	135	-0.055212875355501
3	451063	136	0.024786464120261
3	459347	137	-0.049899966297671
3	467600	138	0.041701517160982
3	475770	139	0.047561781599653
3	484360	140	0.028731313557364
3	492884	141	-0.054766569577623
3	501362	142	0.0102753423783
3	510249	143	-0.0729428983666
3	519052	144	0.014196870999875
3	527805	145	0.022211705013179
3	536997	146	0.0047752809897066
3	546141	147	0.019526570434682
3	555287	148	0.013089853518178
3	564883	149	-0.0090582387568432
3	574475	150	-0.054747348378879
3	584054	151	0.10164703844814
3	594123	152	-0.056854708525352
3	604148	153	-0.050522710871883
3	614160	154	0.082494842805898
3	624538	155	0.034164765405004
3	634844	156	-0.019936257582158
3	645030	157	-0.028491328672972
3	655643	158	0.0076764976140122
3	666150	159	-0.045621059627738
3	676620	160	-0.015019283806906
3	687458	161	0.032090983500238
3	698242	162	0.031209253557027
3	709041	163	-0.021290725304279
3	720238	164	0.046258992373478
3	731401	165	-0.020985279760788
3	742577	166	0.0025859736069105
3	754114	167	-0.019058153259103
3	765567	168	0.049613805243279
3	777003	169	-0.057624124393332
3	788777	170	-0.031728762513959
3	800381	171	-0.0031713851052331
3	811946	172	-0.023855822598561
3	823890	173	0.019102097346913
3	835783	174	-0.015310280988924
3	847905	175	0.077482613506726
3	860274	176	-0.013187659422401
3	875560	177	0.020312972483225
3	887884	178	0.0045358405355369
3	905968	179	-0.053984774649143
3	918647	180	0.019554150984622
3	932377	181	0.0030585854104732
3	945529	182	0.0050755761330947
3	958856	183	-0.035677009138745
3	971830	184	-0.036076928384137
3	985196	185	0.12616932269884
3	998518	186	-0.073118945949245
3	1011906	187	-0.0095180693292054
3	1025709	188	0.065660936019849
3	1039457	189	0.0065067331795579
3	1053210	190	-0.065001171007752
3	1067461	191	-0.03945095830597
3	1081680	192	0.0084937232150697
3	1095868	193	-0.016085785655305
3	1110540	194	0.073893146186601
3	1125210	195	-0.0668801117572
3	1139875	196	0.063407450916712
3	1154979	197	-0.065922225145624
3	1170051	198	0.087206838617567
3	1185112	199	-0.076768993306905
3	1200665	200	-0.010678268959746
4	69	3	4.1962556146115
4	98	4	4.6765885426193
4	158	5	5.9822455727343
4	218	6	6.7469998477461
4	279	7	8.9023657158011
4	384	8	3.651678681686
4	490	9	1.6857621818206
4	596	10	2.3276633668785
4	757	11	2.0995306276608
4	918	12	1.7923040941768
4	1081	13	2.0305681317735
4	1303	14	1.9844951865828
4	1526	15	2.2187318873595
4	1750	16	2.1416854339172
4	2046	17	1.8896148890835
4	2342	18	2.0499339673421
4	2638	19	0.973
4	3018	20	0.973
4	3400	21	3.236958348016
4	3782	22	7.0694109561587
4	4258	23	7.2974163894139
4	4736	24	8.7433911631671
4	5215	25	1.9831721788576
4	5809	26	2.116835898497
4	6396	27	1.9244585801898
4	6983	28	1.8775583559564
4	7690	29	1.9545657515643
4	8398	30	2.0931646705581
4	9106	31	2.2926746988581
4	9949	32	1.993865292131
4	10781	33	1.6968396252803
4	11614	34	2.4149847823944
4	12592	35	1.6983583398882
4	13560	36	1.9906198998388
4	14513	37	2.3442713071536
4	15617	38	1.7018725964397
4	16701	39	2.0993392475273
4	17770	40	1.9585122345881
4	18995	41	2.4691677522194
4	20217	42	1.9170802753567
4	21438	43	1.8345014514108
4	22845	44	2.0838538984303
4	24246	45	2.0539801513469
4	25653	46	2.0668686152862
4	27243	47	1.9813596940184
4	28818	48	2.1840996762636
4	30377	49	2.0987681125428
4	32136	50	1.8592856847688
4	33866	51	2.0145873760113
4	35589	52	2.0950692067684
4	37522	53	1.8080099866508
4	39438	54	1.9870007069688
4	41353	55	2.2415869227426
4	43490	56	2.0614496349521
4	45620	57	2.0646020593826
4	47761	58	1.8102089718445
4	50111	59	2.1453880261281
4	52453	60	1.9826536733129
4	54773	61	2.0673636130683
4	57320	62	2.0538817544551
4	59847	63	2.1528270365066
4	62371	64	2.0265038417738
4	65101	65	1.9764402783138
4	67826	66	1.823544423566
4	70545	67	2.3663700564531
4	73456	68	1.816863137639
4	76320	69	2.0780272006119
4	79141	70	2.2032702170206
4	82166	71	1.8671845150559
4	85130	72	0.973
4	88071	73	0.973
4	91264	74	0.973
4	94444	75	0.973
4	97648	76	0.973
4	101098	77	0.973
4	104538	78	0.973
4	107989	79	0.973
4	111704	80	0.973
4	115386	81	0.973
4	119041	82	0.973
4	122992	83	0.973
4	126930	84	0.973
4	131003	85	0.973
4	135227	86	0.973
4	141279	87	0.973
4	145470	88	0.973
4	153129	89	0.973
4	157550	90	0.973
4	162625	91	0.973
4	167322	92	0.973
4	172003	93	0.973
4	176668	94	0.973
4	181609	95	0.973
4	186497	96	0.973
4	191352	97	0.973
4	196458	98	0.973
4	201534	99	0.973
4	206562	100	0.973
4	211839	101	0.973
4	217111	102	0.973
4	222347	103	0.973
4	227899	104	0.973
4	233471	105	0.973
4	239073	106	0.973
4	245057	107	0.973
4	251072	108	0.973
4	257126	109	0.973
4	263486	110	0.973
4	269821	111	0.973
4	276141	112	0.973
4	282793	113	0.973
4	289437	114	0.973
4	296042	115	0.973
4	302959	116	0.973
4	309832	117	0.973
4	316651	118	0.973
4	323772	119	0.973
4	330799	120	0.973
4	337741	121	0.973
4	344962	122	0.973
4	352141	123	0.973
4	359218	124	2.4080817491368
4	366622	125	3.6097150181135
4	373959	126	4.2908662920557
4	381213	127	5.3300190940896
4	388842	128	6.7716083595646
4	396379	129	8.2306431470796
4	403862	130	7.3964630212997
4	411681	131	1.8694407969886
4	419427	132	2.1350370330868
4	427070	133	1.9913567143412
4	435138	134	2.1059366793651
4	443122	135	1.8435469109796
4	451063	136	2.1141823143441
4	459347	137	1.8590913255925
4	467600	138	2.1700231934041
4	475770	139	2.1950764783891
4	484360	140	2.1348521217125
4	492884	141	1.848423466467
4	501362	142	2.0679571445659
4	510249	143	1.7820942605596
4	519052	144	2.0749497938408
4	527805	145	2.1041555485124
4	536997	146	2.0461934569666
4	546141	147	2.0977460374518
4	555287	148	2.0775076200446
4	564883	149	2.0021532082224
4	574475	150	1.8438174528787
4	584054	151	2.3799842198344
4	594123	152	1.8407138090759
4	604148	153	1.8574406286347
4	614160	154	2.3123894181885
4	624538	155	2.1535598612525
4	634844	156	1.9691423592976
4	645030	157	1.9376113298153
4	655643	158	2.0599739597323
4	666150	159	1.8765833152484
4	676620	160	1.9776849407054
4	687458	161	2.1389434248576
4	698242	162	2.1394055920097
4	709041	163	1.9607511040502
4	720238	164	2.1928600666225
4	731401	165	1.9642310153012
4	742577	166	2.0438040308735
4	754114	167	1.9691072905981
4	765567	168	2.2055554619791
4	777003	169	1.8387961934292
4	788777	170	1.922778033881
4	800381	171	2.0181537909243
4	811946	172	1.9465666317606
4	823890	173	2.0922698365702
4	835783	174	1.9755185732893
4	847905	175	2.2952948749659
4	860274	176	1.9889662956578
4	875560	177	2.1037346918995
4	887884	178	2.0511009581671
4	905968	179	1.8492572903835
4	918647	180	2.0979851268675
4	932377	181	2.0428975590011
4	945529	182	2.0501977758109
4	958856	183	1.9099142825738
4	971830	184	1.9052179611855
4	985196	185	2.4643641249373
4	998518	186	1.7858410554177
4	1011906	187	1.9983405517558
4	1025709	188	2.2582200545228
4	1039457	189	2.0595717264255
4	1053210	190	1.8128817885198
4	1067461	191	1.8949737034561
4	1081680	192	2.0562767784855
4	1095868	193	1.9724109415159
4	1110540	194	2.2821586246632
4	1125210	195	1.8031467798411
4	1139875	196	2.2464983260742
4	1154979	197	1.8061360510748
4	1170051	198	2.3291141609331
4	1185112	199	1.7707192427041
4	1200665	200	1.9909162058012
5	98	4	2414.8767583254
5	158	5	2411.8725636174
5	218	6	2407.2970525089
5	279	7	2402.4626210862
5	384	8	2396.3056860371
5	490	9	2388.8743536096
5	596	10	2380.097228827
5	757	11	2370.3507264333
5	918	12	2360.5878487076
5	1081	13	2350.7849318213
5	1303	14	2341.2418729237
5	1526	15	2334.6305580324
5	1750	16	2337.3467480277
5	2046	17	2348.0519014368
5	2342	18	2358.3998493504
5	2638	19	2371.2788021446
5	3018	20	2385.0887639745
5	3400	21	2398.4985461925
5	3782	22	2411.2485283293
5	4258	23	2420.6905829484
5	4736	24	2427.6440450998
5	5215	25	2431.3031180431
5	5809	26	2432.9057471878
5	6396	27	2434.8184996871
5	6983	28	2436.9106889558
5	7690	29	2438.5031214217
5	8398	30	2439.359314087
5	9106	31	2440.3695716034
5	9949	32	2441.3815056744
5	10781	33	2442.392207776
5	11614	34	2443.4019859718
5	12592	35	2444.4122552489
5	13560	36	2445.4251439738
5	14513	37	2446.4367595227
5	15617	38	2447.4467230743
5	16701	39	2448.4574488286
5	17770	40	2449.467800329
5	18995	41	2450.4780716181
5	20217	42	2449.7461704329
5	21438	43	2448.6331060936
5	22845	44	2447.5209445587
5	24246	45	2446.407523851
5	25653	46	2445.2946584851
5	27243	47	2444.1824360332
5	28818	48	2443.0706190476
5	30377	49	2441.9568028547
5	32136	50	2440.8451110823
5	33866	51	2439.8503503047
5	35589	52	2438.9091742415
5	37522	53	2438.2310626655
5	39438	54	2433.9050446447
5	41353	55	2424.21615465
5	43490	56	2411.3460908785
5	45620	57	2397.4706148925
5	47761	58	2383.5587488873
5	50111	59	2369.633660475
5	52453	60	2355.7048479554
5	54773	61	2341.7904321874
5	57320	62	2327.8638711022
5	59847	63	2313.9188814831
5	62371	64	2299.9979078089
5	65101	65	2286.0826278217
5	67826	66	2272.1469357561
5	70545	67	2258.2076214411
5	73456	68	2244.3155730069
5	76320	69	2230.5273849192
5	79141	70	2216.7446519198
5	82166	71	2203.5167182724
5	85130	72	2190.3178840362
5	88071	73	2177.2322881214
5	91264	74	2166.0575198019
5	94444	75	2157.6433227622
5	97648	76	2151.7978679298
5	101098	77	2148.12850579
5	104538	78	2146.1504391922
5	107989	79	2145.2176430746
5	111704	80	2144.8457426265
5	115386	81	2144.7095674569
5	119041	82	2144.6606226763
5	122992	83	2144.6429435182
5	126930	84	2144.6366379777
5	131003	85	2144.6343920679
5	135227	86	2144.6335903119
5	141279	87	2144.6333007435
5	145470	88	2144.633195825
5	153129	89	2144.6331583896
5	157550	90	2144.633145728
5	162625	91	2144.633145728
5	167322	92	2144.633145728
5	172003	93	2144.633145728
5	176668	94	2144.633145728
5	181609	95	2144.633145728
5	186497	96	2144.633145728
5	191352	97	2144.633145728
5	196458	98	2144.633145728
5	201534	99	2144.633145728
5	206562	100	2144.633145728
5	211839	101	2144.633145728
5	217111	102	2144.633145728
5	222347	103	2144.633145728
5	227899	104	2144.633145728
5	233471	105	2144.633145728
5	239073	106	2144.633145728
5	245057	107	2144.633145728
5	251072	108	2144.633145728
5	257126	109	2144.633145728
5	263486	110	2144.633145728
5	269821	111	2144.633145728
5	276141	112	2144.633145728
5	282793	113	2144.633145728
5	289437	114	2144.633145728
5	296042	115	2144.633145728
5	302959	116	2144.633145728
5	309832	117	2144.633145728
5	316651	118	2144.633145728
5	323772	119	2144.633145728
5	330799	120	2144.633145728
5	337741	121	2144.633145728
5	344962	122	2144.633145728
5	352141	123	2144.633145728
5	359218	124	2144.2754340136
5	366622	125	2142.4846802864
5	373959	126	2139.1451827293
5	381213	127	2134.908475054
5	388842	128	2127.149872842
5	396379	129	2120.4387881567
5	403862	130	2112.3739490838
5	411681	131	2103.147663089
5	419427	132	2093.629591034
5	427070	133	2084.0951069517
5	435138	134	2074.579488395
5	443122	135	2065.0639168544
5	451063	136	2055.5512337412
5	459347	137	2046.0342183947
5	467600	138	2036.0487979884
5	475770	139	2026.0452900858
5	484360	140	2016.0563570814
5	492884	141	2006.0729706188
5	501362	142	1996.0847308773
5	510249	143	1986.0883360283
5	519052	144	1976.106136184
5	527805	145	1966.0952727045
5	536997	146	1956.0879377604
5	546141	147	1946.1023564262
5	555287	148	1936.1053083714
5	564883	149	1926.3526811849
5	574475	150	1916.618181454
5	584054	151	1906.8885864745
5	594123	152	1897.1661472071
5	604148	153	1887.4379255387
5	614160	154	1877.7068625629
5	624538	155	1867.9731467689
5	634844	156	1858.2471694911
5	645030	157	1848.516762564
5	655643	158	1838.7884987453
5	666150	159	1828.8682903362
5	676620	160	1818.7674692031
5	687458	161	1808.6556126159
5	698242	162	1798.6881454488
5	709041	163	1788.7282369935
5	720238	164	1778.7716701351
5	731401	165	1768.8148926139
5	742577	166	1758.8629838625
5	754114	167	1748.9223574745
5	765567	168	1738.9917706434
5	777003	169	1729.0392786098
5	788777	170	1719.0915389528
5	800381	171	1709.1409424301
5	811946	172	1699.1952381799
5	823890	173	1689.2380949382
5	835783	174	1679.2882738797
5	847905	175	1669.3451070891
5	860274	176	1659.395775152
5	875560	177	1649.4270165171
5	887884	178	1639.4901366775
5	905968	179	1629.5258021428
5	918647	180	1619.5642357833
5	932377	181	1609.7627247096
5	945529	182	1599.9604399907
5	958856	183	1590.1700976605
5	971830	184	1580.3662023852
5	985196	185	1570.5647547044
5	998518	186	1560.7786372968
5	1011906	187	1550.434129402
5	1025709	188	1539.9118072168
5	1039457	189	1529.3927900881
5	1053210	190	1518.8715863216
5	1067461	191	1508.3494753712
5	1081680	192	1497.4541218153
5	1095868	193	1486.0624435559
5	1110540	194	1474.6939624506
5	1125210	195	1463.3160897251
5	1139875	196	1451.9234011091
5	1154979	197	1439.8787805256
5	1170051	198	1427.305272048
5	1185112	199	1414.7230042866
5	1200665	200	1402.1630774252
6	98	4	1578.4506684253
6	158	5	1579.5537930429
6	218	6	1581.4165868293
6	279	7	1586.3131998433
6	384	8	1592.5493268352
6	490	9	1600.0762428036
6	596	10	1608.9662610246
6	757	11	1618.8381252186
6	918	12	1628.7265753681
6	1081	13	1638.6555796713
6	1303	14	1648.8046840783
6	1526	15	1660.6325348346
6	1750	16	1673.301875555
6	2046	17	1682.2138796467
6	2342	18	1691.5459182626
6	2638	19	1695.5099147679
6	3018	20	1697.3308411958
6	3400	21	1698.6335971011
6	3782	22	1699.8391930545
6	4258	23	1700.7320023719
6	4736	24	1701.2941834759
6	5215	25	1708.3978488175
6	5809	26	1718.9439634858
6	6396	27	1731.5308475178
6	6983	28	1745.2985167308
6	7690	29	1759.1189484736
6	8398	30	1773.033284259
6	9106	31	1786.9263172904
6	9949	32	1800.8424062571
6	10781	33	1814.7415532097
6	11614	34	1828.6279946407
6	12592	35	1842.5211894047
6	13560	36	1856.4504067414
6	14513	37	1870.362115399
6	15617	38	1884.2511058366
6	16701	39	1898.150578063
6	17770	40	1912.0449035605
6	18995	41	1925.9381259941
6	20217	42	1939.8457802581
6	21438	43	1953.7382693188
6	22845	44	1967.6194902081
6	24246	45	1981.5164272105
6	25653	46	1995.4064328251
6	27243	47	2009.2884140396
6	28818	48	2023.165334505
6	30377	49	2037.0672076773
6	32136	50	2050.942565321
6	33866	51	2064.8483957723
6	35589	52	2078.754013543
6	37522	53	2092.6537938379
6	39438	54	2105.6893007364
6	41353	55	2115.3934075218
6	43490	56	2120.5034639826
6	45620	57	2120.5707901428
6	47761	58	2120.100904949
6	50111	59	2119.6305731572
6	52453	60	2119.160115581
6	54773	61	2118.6901442679
6	57320	62	2118.2197627351
6	59847	63	2117.748758764
6	62371	64	2117.2785659507
6	65101	65	2116.8085654471
6	67826	66	2116.3378755087
6	70545	67	2115.8670632252
6	73456	68	2115.0711128758
6	76320	69	2113.1158412341
6	79141	70	2111.1613431666
6	82166	71	2106.8160774671
6	85130	72	2102.339647443
6	88071	73	2097.6526627708
6	91264	74	2091.0742531046
6	94444	75	2086.1209481629
6	97648	76	2082.6798211997
6	101098	77	2080.5197256459
6	104538	78	2079.3552690716
6	107989	79	2078.806146726
6	111704	80	2078.5872148043
6	115386	81	2078.5070506316
6	119041	82	2078.4782376122
6	122992	83	2078.4678301709
6	126930	84	2078.4641181994
6	131003	85	2078.4627960678
6	135227	86	2078.4623240866
6	141279	87	2078.4621536219
6	145470	88	2078.4620918585
6	153129	89	2078.4620698206
6	157550	90	2078.4620623672
6	162625	91	2078.4620623672
6	167322	92	2078.4620623672
6	172003	93	2078.4620623672
6	176668	94	2078.4620623672
6	181609	95	2078.4620623672
6	186497	96	2078.4620623672
6	191352	97	2078.4620623672
6	196458	98	2078.4620623672
6	201534	99	2078.4620623672
6	206562	100	2078.4620623672
6	211839	101	2078.4620623672
6	217111	102	2078.4620623672
6	222347	103	2078.4620623672
6	227899	104	2078.4620623672
6	233471	105	2078.4620623672
6	239073	106	2078.4620623672
6	245057	107	2078.4620623672
6	251072	108	2078.4620623672
6	257126	109	2078.4620623672
6	263486	110	2078.4620623672
6	269821	111	2078.4620623672
6	276141	112	2078.4620623672
6	282793	113	2078.4620623672
6	289437	114	2078.4620623672
6	296042	115	2078.4620623672
6	302959	116	2078.4620623672
6	309832	117	2078.4620623672
6	316651	118	2078.4620623672
6	323772	119	2078.4620623672
6	330799	120	2078.4620623672
6	337741	121	2078.4620623672
6	344962	122	2078.4620623672
6	352141	123	2078.4620623672
6	359218	124	2078.2514831284
6	366622	125	2077.1972946841
6	373959	126	2075.0037653139
6	381213	127	2070.9101691684
6	388842	128	2067.4514232809
6	396379	129	2060.2880828883
6	403862	130	2051.6797594661
6	411681	131	2041.8317199564
6	419427	132	2031.6722311098
6	427070	133	2021.4952242402
6	435138	134	2011.3383542318
6	443122	135	2001.1815344077
6	451063	136	1991.0277976608
6	459347	137	1980.8694367334
6	467600	138	1971.1272283681
6	475770	139	1961.4031075193
6	484360	140	1951.6931545082
6	492884	141	1941.9885931304
6	501362	142	1932.2793140197
6	510249	143	1922.5621075649
6	519052	144	1912.8586996645
6	527805	145	1903.1274286723
6	536997	146	1893.3995876675
6	546141	147	1883.6928927181
6	555287	148	1873.9750513006
6	564883	149	1864.0194978677
6	574475	150	1854.0443311147
6	584054	151	1844.0741903735
6	594123	152	1834.1113822553
6	604148	153	1824.142648777
6	614160	154	1814.1710037459
6	624538	155	1804.1966403108
6	634844	156	1794.2302067121
6	645030	157	1784.2592339488
6	655643	158	1774.2904572785
6	666150	159	1764.5302406047
6	676620	160	1754.9388907133
6	687458	161	1745.3370619807
6	698242	162	1735.6222454337
6	709041	163	1725.8613688545
6	720238	164	1716.1037670961
6	731401	165	1706.3459588848
6	742577	166	1696.5929221492
6	754114	167	1686.8509423174
6	765567	168	1677.1188014196
6	777003	169	1667.3651930578
6	788777	170	1657.6162421042
6	800381	171	1647.8644913742
6	811946	172	1638.1175351534
6	823890	173	1628.3593685301
6	835783	174	1618.6083777677
6	847905	175	1608.8639082992
6	860274	176	1599.1133968849
6	875560	177	1589.3438469823
6	887884	178	1579.6055388311
6	905968	179	1569.8403246198
6	918647	180	1560.0778232673
6	932377	181	1550.3210563753
6	945529	182	1540.4261354338
6	958856	183	1530.5432697423
6	971830	184	1520.6467230245
6	985196	185	1510.7526470311
6	998518	186	1500.8740461897
6	1011906	187	1491.5384087367
6	1025709	188	1482.437612718
6	1039457	189	1473.3396752551
6	1053210	190	1464.2398465611
6	1067461	191	1455.1392332409
6	1081680	192	1446.5265005752
6	1095868	193	1438.5040472653
6	1110540	194	1430.4979302743
6	1125210	195	1422.4851993471
6	1139875	196	1414.4620345058
6	1154979	197	1407.6222093813
6	1170051	198	1401.6943069091
6	1185112	199	1395.7622747878
6	1200665	200	1389.840775501
7	158	5	4.0332649588119
7	218	6	5.8265110515686
7	279	7	7.7852127750962
7	384	8	9.5658873894228
7	490	9	11.450149483434
7	596	10	13.391487500134
7	757	11	13.949883621705
7	918	12	13.87602620427
7	1081	13	13.885232782268
7	1303	14	13.987373048679
7	1526	15	13.890608048609
7	1750	16	13.887004709987
7	2046	17	13.926980708602
7	2342	18	13.89086526999
7	2638	19	13.965056618985
7	3018	20	13.946692067499
7	3400	21	13.097137451398
7	3782	22	11.939132677032
7	4258	23	7.4783001788439
7	4736	24	7.8592269216425
7	5215	25	9.5749213322898
7	5809	26	11.610942506126
7	6396	27	13.581243869506
7	6983	28	13.973211987913
7	7690	29	13.918392209036
7	8398	30	13.928662607018
7	9106	31	13.985277111761
7	9949	32	13.95532245066
7	10781	33	13.938708755139
7	11614	34	13.908545650935
7	12592	35	13.927478809105
7	13560	36	13.897819017794
7	14513	37	13.989504252097
7	15617	38	13.94374062394
7	16701	39	13.903882643976
7	17770	40	13.969130632835
7	18995	41	13.884234787642
7	20217	42	13.881978327318
7	21438	43	13.927070145076
7	22845	44	13.922745489741
7	24246	45	13.95273740395
7	25653	46	13.968270483359
7	27243	47	13.918685564972
7	28818	48	13.921468284922
7	30377	49	13.897015957548
7	32136	50	13.964752228069
7	33866	51	13.91147568828
7	35589	52	13.974545761354
7	37522	53	13.965476403411
7	39438	54	13.989670229855
7	41353	55	13.951804798429
7	43490	56	13.892850009208
7	45620	57	13.958218119799
7	47761	58	13.933717581006
7	50111	59	13.982012811573
7	52453	60	13.954506225567
7	54773	61	13.954468280503
7	57320	62	13.914126337939
7	59847	63	13.998578815588
7	62371	64	13.932968401979
7	65101	65	13.954534002345
7	67826	66	13.998651232829
7	70545	67	13.999179182528
7	73456	68	13.886099785112
7	76320	69	13.881868150404
7	79141	70	13.887636745651
7	82166	71	13.978686858166
7	85130	72	13.970344127666
7	88071	73	13.925369204739
7	91264	74	11.503028205973
7	94444	75	8.3084939661969
7	97648	76	5.5757626568646
7	101098	77	3.3211618849162
7	104538	78	1.6266335353547
7	107989	79	0.70715133051593
7	111704	80	0.26232084274652
7	115386	81	0.09568805664727
7	119041	82	0.033835632228035
7	122992	83	0.012538818862259
7	126930	84	0.0044949869302171
7	131003	85	0.0015515939487704
7	135227	86	0.00056220080715219
7	141279	87	0.00020206205078003
7	145470	88	7.4991505956587e-05
7	153129	89	2.6407687680597e-05
7	157550	90	0
7	162625	91	0
7	167322	92	0
7	172003	93	0
7	176668	94	0
7	181609	95	0
7	186497	96	0
7	191352	97	0
7	196458	98	0
7	201534	99	0
7	206562	100	0
7	211839	101	0
7	217111	102	0
7	222347	103	0
7	227899	104	0
7	233471	105	0
7	239073	106	0
7	245057	107	0
7	251072	108	0
7	257126	109	0
7	263486	110	0
7	269821	111	0
7	276141	112	0
7	282793	113	0
7	289437	114	0
7	296042	115	0
7	302959	116	0
7	309832	117	0
7	316651	118	0
7	323772	119	0
7	330799	120	0
7	337741	121	0
7	344962	122	0
7	352141	123	0
7	359218	124	1.0074459883879
7	366622	125	2.9889302256727
7	373959	126	4.8098560286978
7	381213	127	6.8175175217465
7	388842	128	8.7692460296107
7	396379	129	10.599613138129
7	403862	130	12.63114044604
7	411681	131	13.911355651631
7	419427	132	13.959096302334
7	427070	133	13.985669557508
7	435138	134	13.912786148109
7	443122	135	13.880683887878
7	451063	136	13.921652116431
7	459347	137	13.904044170342
7	467600	138	13.928399279253
7	475770	139	13.947232982973
7	484360	140	13.957098587838
7	492884	141	13.872669367229
7	501362	142	13.988834063003
7	510249	143	13.962365872057
7	519052	144	13.978590016267
7	527805	145	13.996544766314
7	536997	146	13.909791962707
7	546141	147	13.955426083545
7	555287	148	13.916719595476
7	564883	149	13.96472714375
7	574475	150	13.96898798909
7	584054	151	13.902139999291
7	594123	152	13.980534003156
7	604148	153	13.976162572829
7	614160	154	13.902045026864
7	624538	155	13.998268041729
7	634844	156	13.981719435903
7	645030	157	13.904254397955
7	655643	158	13.91068194794
7	666150	159	13.901592570813
7	676620	160	13.871256113877
7	687458	161	13.9870051032
7	698242	162	13.963580676371
7	709041	163	13.94083829636
7	720238	164	13.980116114989
7	731401	165	13.977826093403
7	742577	166	13.954251742228
7	754114	167	13.894492452065
7	765567	168	13.893317757975
7	777003	169	13.907786323659
7	788777	170	13.910502062014
7	800381	171	13.881678228341
7	811946	172	13.899310339873
7	823890	173	13.872349197764
7	835783	174	13.895146320874
7	847905	175	13.975084472168
7	860274	176	13.915615806044
7	875560	177	13.983601140513
7	887884	178	13.901822753502
7	905968	179	13.971918848483
7	918647	180	13.912339184245
7	932377	181	13.942714784404
7	945529	182	13.915853303717
7	958856	183	13.922881097118
7	971830	184	13.916264264572
7	985196	185	13.879832274488
7	998518	186	13.932997833022
7	1011906	187	13.939943925054
7	1025709	188	13.911533115392
7	1039457	189	13.909209262494
7	1053210	190	13.90328337074
7	1067461	191	13.932158297678
7	1081680	192	13.921860637383
7	1095868	193	13.959992773633
7	1110540	194	13.911786046105
7	1125210	195	13.943455341596
7	1139875	196	13.990971652481
7	1154979	197	13.954088344059
7	1170051	198	13.985034477036
7	1185112	199	13.887624221304
7	1200665	200	13.954445283646
8	218	6	1.7932460927567
8	279	7	1.9587017235276
8	384	8	1.7806746143266
8	490	9	1.8842620940111
8	596	10	1.9413380167005
8	757	11	0.5583961215709
8	918	12	-0.073857417434921
8	1081	13	0.0092065779981212
8	1303	14	0.10214026641101
8	1526	15	-0.096765000070445
8	1750	16	-0.0036033386224883
8	2046	17	0.039975998615846
8	2342	18	-0.036115438612178
8	2638	19	0.074191348995083
8	3018	20	-0.018364551486448
8	3400	21	-0.84955461610103
8	3782	22	-1.1580047743662
8	4258	23	-4.4608324981877
8	4736	24	0.38092674279862
8	5215	25	1.7156944106473
8	5809	26	2.0360211738362
8	6396	27	1.9703013633797
8	6983	28	0.39196811840698
8	7690	29	-0.054819778876846
8	8398	30	0.010270397982096
8	9106	31	0.056614504742901
8	9949	32	-0.029954661100637
8	10781	33	-0.016613695521373
8	11614	34	-0.030163104203529
8	12592	35	0.018933158169965
8	13560	36	-0.029659791311714
8	14513	37	0.091685234303586
8	15617	38	-0.045763628156855
8	16701	39	-0.039857979963999
8	17770	40	0.065247988859191
8	18995	41	-0.08489584519295
8	20217	42	-0.0022564603248618
8	21438	43	0.045091817758511
8	22845	44	-0.0043246553349299
8	24246	45	0.029991914208512
8	25653	46	0.015533079409506
8	27243	47	-0.0495849183877
8	28818	48	0.0027827199501917
8	30377	49	-0.024452327373437
8	32136	50	0.067736270520836
8	33866	51	-0.053276539789513
8	35589	52	0.063070073074195
8	37522	53	-0.0090693579427903
8	39438	54	0.024193826443517
8	41353	55	-0.037865431425162
8	43490	56	-0.058954789221753
8	45620	57	0.065368110591081
8	47761	58	-0.024500538792926
8	50111	59	0.048295230567454
8	52453	60	-0.027506586005911
8	54773	61	-3.7945064249811e-05
8	57320	62	-0.040341942564119
8	59847	63	0.08445247764932
8	62371	64	-0.065610413609539
8	65101	65	0.021565600365866
8	67826	66	0.044117230484263
8	70545	67	0.0005279496987356
8	73456	68	-0.11307939741528
8	76320	69	-0.0042316347081215
8	79141	70	0.0057685952470639
8	82166	71	0.091050112515221
8	85130	72	-0.0083427305007344
8	88071	73	-0.044974922926631
8	91264	74	-2.4223409987658
8	94444	75	-3.1945342397763
8	97648	76	-2.7327313093324
8	101098	77	-2.2546007719484
8	104538	78	-1.6945283495614
8	107989	79	-0.91948220483881
8	111704	80	-0.44483048776941
8	115386	81	-0.16663278609925
8	119041	82	-0.061852424419235
8	122992	83	-0.021296813365776
8	126930	84	-0.0080438319320418
8	131003	85	-0.0029433929814467
8	135227	86	-0.0009893931416182
8	141279	87	-0.00036013875637216
8	145470	88	-0.00012707054482344
8	153129	89	-4.8583818275989e-05
8	157550	90	-2.6407687680597e-05
8	162625	91	0
8	167322	92	0
8	172003	93	0
8	176668	94	0
8	181609	95	0
8	186497	96	0
8	191352	97	0
8	196458	98	0
8	201534	99	0
8	206562	100	0
8	211839	101	0
8	217111	102	0
8	222347	103	0
8	227899	104	0
8	233471	105	0
8	239073	106	0
8	245057	107	0
8	251072	108	0
8	257126	109	0
8	263486	110	0
8	269821	111	0
8	276141	112	0
8	282793	113	0
8	289437	114	0
8	296042	115	0
8	302959	116	0
8	309832	117	0
8	316651	118	0
8	323772	119	0
8	330799	120	0
8	337741	121	0
8	344962	122	0
8	352141	123	0
8	359218	124	1.0074459883879
8	366622	125	1.9814842372848
8	373959	126	1.8209258030251
8	381213	127	2.0076614930487
8	388842	128	1.9517285078642
8	396379	129	1.8303671085183
8	403862	130	2.0315273079113
8	411681	131	1.2802152055907
8	419427	132	0.047740650703199
8	427070	133	0.026573255173863
8	435138	134	-0.072883409399074
8	443122	135	-0.03210226023104
8	451063	136	0.040968228552956
8	459347	137	-0.017607946088537
8	467600	138	0.024355108910239
8	475770	139	0.018833703720011
8	484360	140	0.0098656048648991
8	492884	141	-0.084429220608435
8	501362	142	0.1161646957742
8	510249	143	-0.026468190946616
8	519052	144	0.016224144210573
8	527805	145	0.017954750047066
8	536997	146	-0.086752803607379
8	546141	147	0.045634120837786
8	555287	148	-0.038706488069147
8	564883	149	0.048007548274473
8	574475	150	0.0042608453403226
8	584054	151	-0.066847989798989
8	594123	152	0.078394003864377
8	604148	153	-0.0043714303267191
8	614160	154	-0.074117545965127
8	624538	155	0.096223014865537
8	634844	156	-0.016548605826683
8	645030	157	-0.077465037947986
8	655643	158	0.0064275499852364
8	666150	159	-0.0090893771266565
8	676620	160	-0.030336456936784
8	687458	161	0.11574898932362
8	698242	162	-0.023424426829443
8	709041	163	-0.022742380010895
8	720238	164	0.039277818629053
8	731401	165	-0.0022900215862336
8	742577	166	-0.023574351174757
8	754114	167	-0.059759290162473
8	765567	168	-0.0011746940901496
8	777003	169	0.014468565683346
8	788777	170	0.0027157383551817
8	800381	171	-0.028823833672796
8	811946	172	0.017632111532148
8	823890	173	-0.026961142108776
8	835783	174	0.022797123109923
8	847905	175	0.0799381512939
8	860274	176	-0.059468666124157
8	875560	177	0.067985334468538
8	887884	178	-0.081778387010562
8	905968	179	0.070096094980835
8	918647	180	-0.059579664238262
8	932377	181	0.030375600159168
8	945529	182	-0.026861480686348
8	958856	183	0.0070277934009209
8	971830	184	-0.006616832546424
8	985196	185	-0.036431990084239
8	998518	186	0.053165558534674
8	1011906	187	0.0069460920314306
8	1025709	188	-0.028410809661727
8	1039457	189	-0.0023238528985541
8	1053210	190	-0.0059258917532858
8	1067461	191	0.028874926937279
8	1081680	192	-0.010297660294455
8	1095868	193	0.038132136249915
8	1110540	194	-0.048206727528013
8	1125210	195	0.031669295490719
8	1139875	196	0.047516310885548
8	1154979	197	-0.036883308421819
8	1170051	198	0.030946132976096
8	1185112	199	-0.097410255731084
8	1200665	200	0.066821062341333
9	218	6	3.9274001426868
9	279	7	5.2041356246368
9	384	8	5.7574507674447
9	490	9	7.0006276784153
9	596	10	8.2432295261252
9	757	11	3.9110016848773
9	918	12	1.7792042638201
9	1081	13	2.0579365757541
9	1303	14	2.3818636967155
9	1526	15	1.7037407999188
9	1750	16	2.0152488537881
9	2046	17	2.1655550639215
9	2342	18	1.906797412239
9	2638	19	2.2849654495652
9	3018	20	1.9716653983805
9	3400	21	0.973
9	3782	22	0.973
9	4258	23	0.973
9	4736	24	2.2554772362628
9	5215	25	5.6120472675651
9	5809	26	7.5119842129131
9	6396	27	8.4455276517466
9	6983	28	3.3560730035355
9	7690	29	1.8466200733259
9	8398	30	2.0660268329645
9	9106	31	2.2281549844786
9	9949	32	1.9335288120447
9	10781	33	1.9767670407741
9	11614	34	1.9283950769156
9	12592	35	2.0949799016024
9	13560	36	1.9290667558988
9	14513	37	2.3468857079218
9	15617	38	1.8793040227889
9	16701	39	1.8954681876561
9	17770	40	2.2553467174174
9	18995	41	1.7429567241042
9	20217	42	2.0192482635441
9	21438	43	2.1827359052182
9	22845	44	2.0164367628106
9	24246	45	2.1348602115454
9	25653	46	2.0878872407227
9	27243	47	1.8642059318509
9	28818	48	2.0401536442479
9	30377	49	1.9464315106901
9	32136	50	2.2632042711189
9	33866	51	1.851180617826
9	35589	52	2.2486511283506
9	37522	53	2.0047870143605
9	39438	54	2.1193583924862
9	41353	55	1.9065956504161
9	43490	56	1.8305118457369
9	45620	57	2.2544630998412
9	47761	58	1.9497933768092
9	50111	59	2.199742909699
9	52453	60	1.9416842431598
9	54773	61	2.0340583936544
9	57320	62	1.8947902862501
9	59847	63	2.3236156337703
9	62371	64	1.8116807487081
9	65101	65	2.1067187558746
9	67826	66	2.1875465210812
9	70545	67	2.0405446651404
9	73456	68	1.6487905152147
9	76320	69	2.0126291187762
9	79141	70	2.0466796925005
9	82166	71	2.3433989621326
9	85130	72	2.0077208397811
9	88071	73	1.8802787050508
9	91264	74	0.973
9	94444	75	0.973
9	97648	76	0.973
9	101098	77	0.973
9	104538	78	0.973
9	107989	79	0.973
9	111704	80	0.973
9	115386	81	0.973
9	119041	82	1.1111278658488
9	122992	83	1.1105405169147
9	126930	84	1.1102081243603
9	131003	85	1.1100737482573
9	135227	86	1.1100269865137
9	141279	87	1.1100097299357
9	145470	88	1.1100036152937
9	153129	89	1.1100012735977
9	157550	90	0.973
9	162625	91	0.973
9	167322	92	0.973
9	172003	93	0.973
9	176668	94	0.973
9	181609	95	0.973
9	186497	96	0.973
9	191352	97	0.973
9	196458	98	0.973
9	201534	99	0.973
9	206562	100	0.973
9	211839	101	0.973
9	217111	102	0.973
9	222347	103	0.973
9	227899	104	0.973
9	233471	105	0.973
9	239073	106	0.973
9	245057	107	0.973
9	251072	108	0.973
9	257126	109	0.973
9	263486	110	0.973
9	269821	111	0.973
9	276141	112	0.973
9	282793	113	0.973
9	289437	114	0.973
9	296042	115	0.973
9	302959	116	0.973
9	309832	117	0.973
9	316651	118	0.973
9	323772	119	0.973
9	330799	120	0.973
9	337741	121	0.973
9	344962	122	0.973
9	352141	123	0.973
9	359218	124	1.4032959804234
9	366622	125	2.6839795840135
9	373959	126	3.4630791015344
9	381213	127	4.7667804285314
9	388842	128	5.7200845072804
9	396379	129	6.407023179348
9	403862	130	8.089674348387
9	411681	131	6.3218833112619
9	419427	132	2.1952654366489
9	427070	133	2.1269451191026
9	435138	134	1.7855558300948
9	443122	135	1.9192758908256
9	451063	136	2.1682894028507
9	459347	137	1.9700401564216
9	467600	138	2.1132780923625
9	475770	139	2.0967521261933
9	484360	140	2.0676394119274
9	492884	141	1.7435781492056
9	501362	142	2.4293300508524
9	510249	143	1.945929812323
9	519052	144	2.0913101916029
9	527805	145	2.0990577040159
9	536997	146	1.7388095837429
9	546141	147	2.1877632083839
9	555287	148	1.9005145370032
9	564883	149	2.1968042961102
9	574475	150	2.0500150684712
9	584054	151	1.8048797568188
9	594123	152	2.3009863061562
9	604148	153	2.0216810197987
9	614160	154	1.780515749493
9	624538	155	2.3632863193112
9	634844	156	1.9812120211058
9	645030	157	1.7694840250872
9	655643	158	2.0512663796081
9	666150	159	1.9983405927992
9	676620	160	1.9242939949574
9	687458	161	2.4276901516778
9	698242	162	1.9562892484012
9	709041	163	1.9563851254971
9	720238	164	2.1691450530814
9	731401	165	2.0288611293971
9	742577	166	1.9548839267273
9	754114	167	1.8279616767825
9	765567	168	2.0240172755128
9	777003	169	2.0779186428145
9	788777	170	2.0388041841175
9	800381	171	1.9303371884883
9	811946	172	2.0876231595316
9	823890	173	1.9356815008423
9	835783	174	2.1044779476447
9	847905	175	2.3055260701722
9	860274	176	1.8307829891951
9	875560	177	2.2662806746104
9	887884	178	1.7548306755801
9	905968	179	2.2720005806138
9	918647	180	1.8301239210578
9	932377	181	2.1350531771457
9	945529	182	1.9401591790509
9	958856	183	2.0545426175358
9	971830	184	2.008095298911
9	985196	185	1.9047128092177
9	998518	186	2.2105154788471
9	1011906	187	2.0560379228057
9	1025709	188	1.9345525540005
9	1039457	189	2.0217783396811
9	1053210	190	2.0091088827246
9	1067461	191	2.1288596155953
9	1081680	192	1.9963070300968
9	1095868	193	2.1630409260281
9	1110540	194	1.8682060152898
9	1125210	195	2.1394815211727
9	1139875	196	2.1981386720178
9	1154979	197	1.9101109931467
9	1170051	198	2.1416143091045
9	1185112	199	1.7013473059811
9	1200665	200	2.2589043103441
10	279	7	2414.8848622198
10	384	8	2412.0691307599
10	490	9	2407.3819784434
10	596	10	2402.4639103656
10	757	11	2396.2016479742
10	918	12	2388.5021761758
10	1081	13	2379.5347220144
10	1303	14	2369.7521497252
10	1526	15	2359.9648396304
10	1750	16	2350.1637192596
10	2046	17	2340.717056727
10	2342	18	2334.4889366638
10	2638	19	2338.0188398167
10	3018	20	2348.6970945761
10	3400	21	2359.0578910074
10	3782	22	2372.1753142256
10	4258	23	2385.9847009928
10	4736	24	2399.0560799135
10	5215	25	2411.469456295
10	5809	26	2420.8240344936
10	6396	27	2428.2511095385
10	6983	28	2431.5096723901
10	7690	29	2433.2168502312
10	8398	30	2435.2011956087
10	9106	31	2437.29147981
10	9949	32	2438.672857787
10	10781	33	2439.5458305131
10	11614	34	2440.5569901068
10	12592	35	2441.5662171456
10	13560	36	2442.5764760413
10	14513	37	2443.5864360537
10	15617	38	2444.5969193554
10	16701	39	2445.6077267987
10	17770	40	2446.6171177449
10	18995	41	2447.6285385494
10	20217	42	2448.6389437378
10	21438	43	2449.6489775468
10	22845	44	2450.659299592
10	24246	45	2449.5461587089
10	25653	46	2448.4337074455
10	27243	47	2447.3207898499
10	28818	48	2446.207873206
10	30377	49	2445.0940501215
10	32136	50	2443.9833638043
10	33866	51	2442.8694501355
10	35589	52	2441.7571938549
10	37522	53	2440.6460889142
10	39438	54	2439.6827321647
10	41353	55	2438.7413750661
10	43490	56	2437.8192072627
10	45620	57	2432.6325302194
10	47761	58	2422.106233715
10	50111	59	2408.9688818519
10	52453	60	2395.0345910933
10	54773	61	2381.126587261
10	57320	62	2367.2179763186
10	59847	63	2353.2984252305
10	62371	64	2339.3434596916
10	65101	65	2325.3984135713
10	67826	66	2311.4586331139
10	70545	67	2297.5367558505
10	73456	68	2283.6070172336
10	76320	69	2269.6839314153
10	79141	70	2255.7643697551
10	82166	71	2241.8757564033
10	85130	72	2228.0688688542
10	88071	73	2214.3596332766
10	91264	74	2201.1714023183
10	94444	75	2187.9686336372
10	97648	76	2175.8734212776
10	101098	77	2166.9060475181
10	104538	78	2160.0570473718
10	107989	79	2155.1946690262
10	111704	80	2152.0845165758
10	115386	81	2150.3460835881
10	119041	82	2149.5044575131
10	122992	83	2149.1558657689
10	126930	84	2149.0223896184
10	131003	85	2148.9725696122
10	135227	86	2148.9540163553
10	141279	87	2148.9470391435
10	145470	88	2148.9444051881
10	153129	89	2148.9434134671
10	157550	90	2148.94304363
10	162625	91	2148.9429086937
10	167322	92	2148.9428601107
10	172003	93	2148.9428425793
10	176668	94	2148.9428407104
10	181609	95	2148.9428407104
10	186497	96	2148.9428407104
10	191352	97	2148.9428407104
10	196458	98	2148.9428407104
10	201534	99	2148.9428407104
10	206562	100	2148.9428407104
10	211839	101	2148.9428407104
10	217111	102	2148.9428407104
10	222347	103	2148.9428407104
10	227899	104	2148.9428407104
10	233471	105	2148.9428407104
10	239073	106	2148.9428407104
10	245057	107	2148.9428407104
10	251072	108	2148.9428407104
10	257126	109	2148.9428407104
10	263486	110	2148.9428407104
10	269821	111	2148.9428407104
10	276141	112	2148.9428407104
10	282793	113	2148.9428407104
10	289437	114	2148.9428407104
10	296042	115	2148.9428407104
10	302959	116	2148.9428407104
10	309832	117	2148.9428407104
10	316651	118	2148.9428407104
10	323772	119	2148.9428407104
10	330799	120	2148.9428407104
10	337741	121	2148.9428407104
10	344962	122	2148.9428407104
10	352141	123	2148.9428407104
10	359218	124	2148.8702690681
10	366622	125	2148.0086281676
10	373959	126	2145.7118229447
10	381213	127	2141.8120576798
10	388842	128	2136.7254955326
10	396379	129	2131.117327133
10	403862	130	2124.0657879765
10	411681	131	2115.6133790046
10	419427	132	2106.1561989734
10	427070	133	2096.6378862071
10	435138	134	2087.1217902419
10	443122	135	2077.6044014551
10	451063	136	2068.0710886348
10	459347	137	2058.5401411533
10	467600	138	2049.0209457527
10	475770	139	2039.0665878284
10	484360	140	2029.0627509638
10	492884	141	2019.068488598
10	501362	142	2009.0755044145
10	510249	143	1999.082110878
10	519052	144	1989.0864711792
10	527805	145	1979.0778519714
10	536997	146	1969.0997515288
10	546141	147	1959.1030309986
10	555287	148	1949.0920758178
10	564883	149	1939.0990133696
10	574475	150	1929.3238982954
10	584054	151	1919.5893011614
10	594123	152	1909.8640592867
10	604148	153	1900.1361472709
10	614160	154	1890.3993230128
10	624538	155	1880.685966054
10	634844	156	1870.9506903876
10	645030	157	1861.2166143787
10	655643	158	1851.4722610052
10	666150	159	1841.7369804527
10	676620	160	1831.8535073408
10	687458	161	1821.7426111082
10	698242	162	1811.6210658533
10	709041	163	1801.6432688717
10	720238	164	1791.7017748873
10	731401	165	1781.7595340305
10	742577	166	1771.7925374205
10	754114	167	1761.8389916777
10	765567	168	1751.8741590569
10	777003	169	1741.918884408
10	788777	170	1731.9774346824
10	800381	171	1722.0212385546
10	811946	172	1712.0772054117
10	823890	173	1702.1265422746
10	835783	174	1692.1826338564
10	847905	175	1682.2328012168
10	860274	176	1672.2662981771
10	875560	177	1662.3004702466
10	887884	178	1652.3501474471
10	905968	179	1642.4014628541
10	918647	180	1632.4360032588
10	932377	181	1622.4939026362
10	945529	182	1612.6959237646
10	958856	183	1602.8667681526
10	971830	184	1593.0418467643
10	985196	185	1583.2374762548
10	998518	186	1573.4200091433
10	1011906	187	1563.6005657559
10	1025709	188	1553.282985798
10	1039457	189	1542.719625566
10	1053210	190	1532.1689063335
10	1067461	191	1521.6256383762
10	1081680	192	1511.0776744894
10	1095868	193	1500.1918185117
10	1110540	194	1488.7834805817
10	1125210	195	1477.3862786073
10	1139875	196	1465.9602164741
10	1154979	197	1454.5625143682
10	1170051	198	1442.5934273297
10	1185112	199	1429.955481346
10	1200665	200	1417.2894452021
11	279	7	1578.4476927174
11	384	8	1579.4816146148
11	490	9	1581.3305685576
11	596	10	1586.311893981
11	757	11	1592.6547030602
11	918	12	1600.4532072712
11	1081	13	1609.5360029312
11	1303	14	1619.4444009606
11	1526	15	1629.3575977338
11	1750	16	1639.2847824143
11	2046	17	1649.4765304932
11	2342	18	1661.4854336744
11	2638	19	1673.8446300924
11	3018	20	1682.7957309801
11	3400	21	1692.1393567109
11	3782	22	1695.6439150097
11	4258	23	1697.4374776948
11	4736	24	1698.6863156371
11	5215	25	1699.860083269
11	5809	26	1700.7446211064
11	6396	27	1701.4003788568
11	6983	28	1709.757081449
11	7690	29	1720.9911797
11	8398	30	1734.0491812732
11	9106	31	1747.8043141738
11	9949	32	1761.6824669717
11	10781	33	1775.5982529195
11	11614	34	1789.5036912933
11	12592	35	1803.3825532272
11	13560	36	1817.2756052278
11	14513	37	1831.1645469936
11	15617	38	1845.0606850199
11	16701	39	1858.9612806309
11	17770	40	1872.8423966132
11	18995	41	1886.7514271513
11	20217	42	1900.646490965
11	21438	43	1914.536447579
11	22845	44	1928.4487420022
11	24246	45	1942.3421864314
11	25653	46	1956.2270235084
11	27243	47	1970.117681019
11	28818	48	1984.0083266487
11	30377	49	1997.9102858361
11	32136	50	2011.7730940934
11	33866	51	2025.6761838896
11	35589	52	2039.5585873295
11	37522	53	2053.4266205495
11	39438	54	2067.3249077424
11	41353	55	2081.2332002614
11	43490	56	2095.1082015075
11	45620	57	2107.8060795395
11	47761	58	2116.5990612879
11	50111	59	2120.9591539605
11	52453	60	2120.4885113519
11	54773	61	2120.0187566066
11	57320	62	2119.5489813555
11	59847	63	2119.0788365919
11	62371	64	2118.6074956749
11	65101	65	2118.1364897946
[...]
288	835783	174	1.8785957351141
288	847905	175	2.0432234281115
288	860274	176	1.8102087932639
288	875560	177	1.835606234977
288	887884	178	0.32317489423551
288	905968	179	-0.61150280180069
288	918647	180	-0.643812013958
288	932377	181	-0.35106495714859
288	945529	182	-0.27898803904832
288	958856	183	-0.14996156276111
288	971830	184	-0.16175763368804
288	985196	185	-0.13349145707354
288	998518	186	-0.043010498495448
288	1011906	187	-0.11866270511896
288	1025709	188	0.024833690034201
288	1039457	189	-0.14155008862477
288	1053210	190	0.033855584865764
288	1067461	191	0.004285243242828
288	1081680	192	-1.706942558843
288	1095868	193	-1.7580227724029
288	1110540	194	-1.6055219080467
288	1125210	195	-1.4461884247951
288	1139875	196	-1.1143237787296
288	1154979	197	-0.89362067585166
288	1170051	198	-0.54583367313033
288	1185112	199	-0.24291298398327
288	1200665	200	-0.10675410956594
289	835783	174	4.1618523283488
289	847905	175	5.5351270590395
289	860274	176	5.9984019279033
289	875560	177	7.0193339422111
289	887884	178	2.7936236636263
289	905968	179	0.973
289	918647	180	0.973
289	932377	181	0.973
289	945529	182	0.973
289	958856	183	1.3244795779926
289	971830	184	1.2900392714646
289	985196	185	1.3515504879559
289	998518	186	1.561024062663
289	1011906	187	1.3789823116108
289	1025709	188	1.7119463571957
289	1039457	189	1.3216150467812
289	1053210	190	1.724018738573
289	1067461	191	1.6567210991782
289	1081680	192	0.973
289	1095868	193	0.973
289	1110540	194	0.973
289	1125210	195	0.973
289	1139875	196	0.973
289	1154979	197	0.973
289	1170051	198	0.973
289	1185112	199	0.973
289	1200665	200	0.973
290	847905	175	2414.8887947192
290	860274	176	2411.839309744
290	875560	177	2407.1483131133
290	887884	178	2402.1055246805
290	905968	179	2395.7036317975
290	918647	180	2387.9536180414
290	932377	181	2378.9356486216
290	945529	182	2369.7263681659
290	958856	183	2360.5372305254
290	971830	184	2351.4839329404
290	985196	185	2342.9731922124
290	998518	186	2335.9011286141
290	1011906	187	2333.8668947089
290	1025709	188	2339.2133343287
290	1039457	189	2347.1266310998
290	1053210	190	2354.6020069881
290	1067461	191	2362.2321791128
290	1081680	192	2371.5147810123
290	1095868	193	2379.3884491734
290	1110540	194	2385.8827709075
290	1125210	195	2391.0956500977
290	1139875	196	2395.0325799037
290	1154979	197	2397.8443623888
290	1170051	198	2399.6548158071
290	1185112	199	2400.6964344787
290	1200665	200	2401.2186905668
291	847905	175	1578.4462487241
291	860274	176	1579.5660036923
291	875560	177	1581.567239346
291	887884	178	1586.6748893065
291	905968	179	1593.1591248373
291	918647	180	1601.0088210888
291	932377	181	1610.1427817466
291	945529	182	1619.4705141289
291	958856	183	1628.7778446134
291	971830	184	1637.9475878356
291	985196	185	1646.5883259233
291	998518	186	1655.6416680394
291	1011906	187	1666.3156582909
291	1025709	188	1674.8092562454
291	1039457	189	1681.3794476818
291	1053210	190	1688.1209288947
291	1067461	191	1694.1577303363
291	1081680	192	1695.5451861555
291	1095868	193	1696.6523765232
291	1110540	194	1697.4253457403
291	1125210	195	1697.933603839
291	1139875	196	1698.3058668431
291	1154979	197	1698.5717396531
291	1170051	198	1698.7429301143
291	1185112	199	1698.8414221155
291	1200665	200	1698.8908049157
292	860274	176	4.1406812462363
292	875560	177	6.0654450932554
292	887884	178	8.1474102431548
292	905968	179	9.9105920719601
292	918647	180	11.990486721428
292	932377	181	13.100831135974
292	945529	182	13.077337078374
292	958856	183	13.110146855266
292	971830	184	12.647587796033
292	985196	185	11.861903611965
292	998518	186	11.251897054644
292	1011906	187	10.762691580144
292	1025709	188	10.395253332004
292	1039457	189	10.160463306642
292	1053210	190	9.9230536362815
292	1067461	191	9.8511583822751
292	1081680	192	8.7802807883677
292	1095868	193	7.3350389366889
292	1110540	194	5.9150598572958
292	1125210	195	4.6677783165768
292	1139875	196	3.4030222442361
292	1154979	197	2.3886696288934
292	1170051	198	1.3984172396444
292	1185112	199	0.77129443831687
292	1200665	200	0.35789611826728
293	875560	177	1.9247638470191
293	887884	178	2.0819651498995
293	905968	179	1.7631818288052
293	918647	180	2.0798946494679
293	932377	181	1.1103444145459
293	945529	182	-0.023494057599454
293	958856	183	0.032809776891954
293	971830	184	-0.46255905923375
293	985196	185	-0.78568418406799
293	998518	186	-0.6100065573202
293	1011906	187	-0.48920547450007
293	1025709	188	-0.3674382481402
293	1039457	189	-0.23479002536233
293	1053210	190	-0.23740967036031
293	1067461	191	-0.071895254006449
293	1081680	192	-1.0708775939074
293	1095868	193	-1.4452418516788
293	1110540	194	-1.4199790793931
293	1125210	195	-1.247281540719
293	1139875	196	-1.2647560723407
293	1154979	197	-1.0143526153426
293	1170051	198	-0.99025238924902
293	1185112	199	-0.62712280132755
293	1200665	200	-0.41339832004959
294	875560	177	4.2367774106375
294	887884	178	5.6409845367817
294	905968	179	5.889286488747
294	918647	180	7.857959183656
294	932377	181	5.455390510904
294	945529	182	1.8734061273251
294	958856	183	2.0542565448375
294	971830	184	0.973
294	985196	185	0.973
294	998518	186	0.973
294	1011906	187	0.973
294	1025709	188	0.973
294	1039457	189	0.973
294	1053210	190	0.973
294	1067461	191	1.5028462858087
294	1081680	192	0.973
294	1095868	193	0.973
294	1110540	194	0.973
294	1125210	195	0.973
294	1139875	196	0.973
294	1154979	197	0.973
294	1170051	198	0.973
294	1185112	199	0.973
294	1200665	200	0.973
295	887884	178	2414.8411606834
295	905968	179	2411.8212945821
295	918647	180	2407.2340216642
295	932377	181	2402.4078865714
295	945529	182	2396.1670496335
295	958856	183	2388.4829322497
295	971830	184	2379.706800545
295	985196	185	2370.8227059451
295	998518	186	2361.9707496609
295	1011906	187	2353.1122649581
295	1025709	188	2344.2440478104
295	1039457	189	2336.3270312872
295	1053210	190	2333.8656889133
295	1067461	191	2341.5537264398
295	1081680	192	2350.9971634647
295	1095868	193	2359.2685692153
295	1110540	194	2368.0565676257
295	1125210	195	2375.8908851432
295	1139875	196	2382.2379090653
295	1154979	197	2387.2071075563
295	1170051	198	2390.8762875041
295	1185112	199	2393.3790716749
295	1200665	200	2394.9531358999
296	887884	178	1578.4637396941
296	905968	179	1579.5726187658
296	918647	180	1581.4804283911
296	932377	181	1586.3686383655
296	945529	182	1592.6897464124
296	958856	183	1600.4726987174
296	971830	184	1609.3617110867
296	985196	185	1618.3600749951
296	998518	186	1627.3258872181
296	1011906	187	1636.2983118296
296	1025709	188	1645.2805940667
296	1039457	189	1655.0964463288
296	1053210	190	1667.2697982499
296	1067461	191	1676.6992636202
296	1081680	192	1684.8699907148
296	1095868	193	1692.3293515956
296	1110540	194	1695.0282924725
296	1125210	195	1696.199275516
296	1139875	196	1696.99152584
296	1154979	197	1697.565916175
296	1170051	198	1697.9128616415
296	1185112	199	1698.1495165974
296	1200665	200	1698.2983548818
297	905968	179	4.0301020879068
297	918647	180	5.7866659510231
297	932377	181	7.8106567098528
297	945529	182	9.7852737790208
297	958856	183	11.771192707108
297	971830	184	12.646955651697
297	985196	185	12.691492472105
297	998518	186	12.65436932687
297	1011906	187	12.633675903024
297	1025709	188	12.599634996388
297	1039457	189	12.659472650269
297	1053210	190	12.658417382807
297	1067461	191	12.63769881008
297	1081680	192	12.043301552481
297	1095868	193	10.413530604008
297	1110540	194	8.7867382522903
297	1125210	195	7.322603631566
297	1139875	196	5.7391122827922
297	1154979	197	4.4579553424186
297	1170051	198	3.0844155497465
297	1185112	199	2.0439939088209
297	1200665	200	1.2355295623238
298	918647	180	1.7565638631163
298	932377	181	2.0239907588297
298	945529	182	1.974617069168
298	958856	183	1.9859189280868
298	971830	184	0.87576294458965
298	985196	185	0.044536820407956
298	998518	186	-0.037123145235237
298	1011906	187	-0.020693423845804
298	1025709	188	-0.034040906636511
298	1039457	189	0.059837653881406
298	1053210	190	-0.0010552674625082
298	1067461	191	-0.020718572726473
298	1081680	192	-0.59439725759904
298	1095868	193	-1.6297709484727
298	1110540	194	-1.6267923517181
298	1125210	195	-1.4641346207242
298	1139875	196	-1.5834913487738
298	1154979	197	-1.2811569403737
298	1170051	198	-1.3735397926721
298	1185112	199	-1.0404216409256
298	1200665	200	-0.80846434649705
299	918647	180	3.8567292070852
299	932377	181	5.3407005675328
299	945529	182	6.3252391424865
299	958856	183	7.4622837645495
299	971830	184	4.5762074728406
299	985196	185	2.0473074295133
299	998518	186	1.7944271933776
299	1011906	187	1.8427210667168
299	1025709	188	1.7992172049887
299	1039457	189	2.0906751831929
299	1053210	190	1.9047974625166
299	1067461	191	1.8429964782652
299	1081680	192	0.973
299	1095868	193	0.973
299	1110540	194	0.973
299	1125210	195	0.973
299	1139875	196	0.973
299	1154979	197	0.973
299	1170051	198	0.973
299	1185112	199	0.973
299	1200665	200	0.973
300	932377	181	2414.8779380508
300	945529	182	2411.9970329538
300	958856	183	2407.4862191244
300	971830	184	2402.5944783367
300	985196	185	2396.3107487656
300	998518	186	2388.7262865513
300	1011906	187	2380.8504155858
300	1025709	188	2372.9843149764
300	1039457	189	2365.0945059197
300	1053210	190	2357.2114851256
300	1067461	191	2349.3247325944
300	1081680	192	2341.6477208548
300	1095868	193	2335.177532454
300	1110540	194	2334.0491336513
300	1125210	195	2341.3654217112
300	1139875	196	2349.8683449661
300	1154979	197	2358.1906958385
300	1170051	198	2367.7850334342
300	1185112	199	2376.123123192
300	1200665	200	2382.3014627453
301	932377	181	1578.4502352364
301	945529	182	1579.5080885524
301	958856	183	1581.2249871083
301	971830	184	1586.1796466131
301	985196	185	1592.5441989889
301	998518	186	1600.2262143353
301	1011906	187	1608.2033866011
301	1025709	188	1616.1706628418
301	1039457	189	1624.1619524732
301	1053210	190	1632.1463665301
301	1067461	191	1640.1345603233
301	1081680	192	1648.2851355597
301	1095868	193	1657.3384426096
301	1110540	194	1668.4333620165
301	1125210	195	1676.5471962271
301	1139875	196	1683.8519939184
301	1154979	197	1691.3572983872
301	1170051	198	1694.9877066864
301	1185112	199	1696.23398777
301	1200665	200	1696.9990901463
302	945529	182	3.8568705508995
302	958856	183	5.7107599186359
302	971830	184	7.8633960219004
302	985196	185	9.8373710972068
302	998518	186	11.236298415992
302	1011906	187	11.218727136085
302	1025709	188	11.165747769568
302	1039457	189	11.275574481318
302	1053210	190	11.176221124339
302	1067461	191	11.209788830762
302	1081680	192	11.23493280611
302	1095868	193	11.244871398192
302	1110540	194	11.147921455172
302	1125210	195	11.249734024895
302	1139875	196	11.198601163442
302	1154979	197	11.229697564426
302	1170051	198	9.6867360400611
302	1185112	199	7.3906289849601
302	1200665	200	5.2776683298751
303	958856	183	1.8538893677364
303	971830	184	2.1526361032645
303	985196	185	1.9739750753064
303	998518	186	1.3989273187849
303	1011906	187	-0.017571279907132
303	1025709	188	-0.052979366516229
303	1039457	189	0.10982671174919
303	1053210	190	-0.099353356978391
303	1067461	191	0.033567706423346
303	1081680	192	0.025143975347746
303	1095868	193	0.0099385920818893
303	1110540	194	-0.096949943020007
303	1125210	195	0.10181256972253
303	1139875	196	-0.051132861452643
303	1154979	197	0.031096400984097
303	1170051	198	-1.542961524365
303	1185112	199	-2.296107055101
303	1200665	200	-2.112960655085
304	958856	183	3.954187267393
304	971830	184	5.6136607088567
304	985196	185	6.3524123290938
304	998518	186	5.5713130043435
304	1011906	187	1.7341214897485
304	1025709	188	1.6346696674767
304	1039457	189	2.0848090125448
304	1053210	190	1.5104964706997
304	1067461	191	1.8715716279651
304	1081680	192	1.8510573306451
304	1095868	193	1.8107381632415
304	1110540	194	1.5152888775727
304	1125210	195	2.0602422914509
304	1139875	196	1.6419569903935
304	1154979	197	1.8666993982651
304	1170051	198	0.973
304	1185112	199	0.973
304	1200665	200	0.973
305	971830	184	2414.8788141906
305	985196	185	2412.0652779912
305	998518	186	2407.551033954
305	1011906	187	2402.8081792406
305	1025709	188	2396.7116066761
305	1039457	189	2389.3548582763
305	1053210	190	2380.744486539
305	1067461	191	2371.7330126754
305	1081680	192	2362.7249511016
305	1095868	193	2353.713147666
305	1110540	194	2344.6833110899
305	1125210	195	2336.5824422954
305	1139875	196	2333.8309977797
305	1154979	197	2341.5169611881
305	1170051	198	2350.8687225336
305	1185112	199	2358.6832128648
305	1200665	200	2366.4176509907
306	971830	184	1578.4499135222
306	985196	185	1579.4830293311
306	998518	186	1581.1593386149
306	1011906	187	1585.9631970385
306	1025709	188	1592.13818515
306	1039457	189	1599.5895577734
306	1053210	190	1608.3106781319
306	1067461	191	1617.4380596867
306	1081680	192	1626.5619850615
306	1095868	193	1635.6897004275
306	1110540	194	1644.8356808797
306	1125210	195	1654.7694804864
306	1139875	196	1667.0497573456
306	1154979	197	1676.6695734682
306	1170051	198	1684.7541594654
306	1185112	199	1691.8014625777
306	1200665	200	1694.7833261965
307	985196	185	3.7541588574195
307	998518	186	5.7118946708985
307	1011906	187	7.5933595718689
307	1025709	188	9.6098677490083
307	1039457	189	11.185632338146
307	1053210	190	12.828064661029
307	1067461	191	12.858428171399
307	1081680	192	12.773671595888
307	1095868	193	12.883004034611
307	1110540	194	12.869395815994
307	1125210	195	12.818268577999
307	1139875	196	12.806688598868
307	1154979	197	12.836134299191
307	1170051	198	11.620574435326
307	1185112	199	9.6698515647951
307	1200665	200	7.8544108825929
308	998518	186	1.9577358134789
308	1011906	187	1.8814649009705
308	1025709	188	2.0165081771393
308	1039457	189	1.5757645891374
308	1053210	190	1.6424323228832
308	1067461	191	0.030363510369789
308	1081680	192	-0.084756575510838
308	1095868	193	0.10933243872365
308	1110540	194	-0.013608218617739
308	1125210	195	-0.051127237994223
308	1139875	196	-0.01157997913193
308	1154979	197	0.029445700323842
308	1170051	198	-1.2155598638658
308	1185112	199	-1.9507228705305
308	1200665	200	-1.8154406822022
309	998518	186	4.0977108093026
309	1011906	187	4.9598296968464
309	1025709	188	6.3257520636553
309	1039457	189	6.0267292681764
309	1053210	190	7.0015194515765
309	1067461	191	2.0207811610832
309	1081680	192	1.657822167393
309	1095868	193	2.2684578372911
309	1110540	194	1.885514090343
309	1125210	195	1.7649741148387
309	1139875	196	1.8860904866543
309	1154979	197	2.015683544342
309	1170051	198	0.973
309	1185112	199	0.973
309	1200665	200	0.973
310	1011906	187	2414.8585700947
310	1025709	188	2411.9969703056
310	1039457	189	2407.3590078291
310	1053210	190	2402.5038493358
310	1067461	191	2396.2110340785
310	1081680	192	2388.5356686392
310	1095868	193	2379.5098477243
310	1110540	194	2370.1418326314
310	1125210	195	2360.7787300163
310	1139875	196	2351.4193250611
310	1154979	197	2342.1844435789
310	1170051	198	2334.9812863778
310	1185112	199	2335.3851237283
310	1200665	200	2345.3407236338
311	1011906	187	1578.4573470484
311	1025709	188	1579.508111557
311	1039457	189	1581.3538346253
311	1053210	190	1586.271441306
311	1067461	191	1592.6451962292
311	1081680	192	1600.4192840196
311	1095868	193	1609.5611971607
311	1110540	194	1619.0497058611
311	1125210	195	1628.533238899
311	1139875	196	1638.0130267162
311	1154979	197	1647.5980469361
311	1170051	198	1658.5203126362
311	1185112	199	1671.4201332461
311	1200665	200	1679.768871597
312	1025709	188	3.8585680350128
312	1039457	189	5.8516531472004
312	1053210	190	7.8973758989761
312	1067461	191	9.8557514331911
312	1081680	192	11.942946414342
312	1095868	193	13.281673413053
312	1110540	194	13.354737228594
312	1125210	195	13.387590942945
312	1139875	196	13.339860889638
312	1154979	197	13.271152209534
312	1170051	198	13.34358413055
312	1185112	199	13.36102348745
312	1200665	200	12.234186555332
313	1039457	189	1.9930851121875
313	1053210	190	2.0457227517758
313	1067461	191	1.958375534215
313	1081680	192	2.0871949811513
313	1095868	193	1.3387269987105
313	1110540	194	0.073063815541101
313	1125210	195	0.032853714351075
313	1139875	196	-0.047730053307022
313	1154979	197	-0.068708680104464
313	1170051	198	0.072431921015959
313	1185112	199	0.017439356900287
313	1200665	200	-1.126836932118
314	1039457	189	4.2215389405203
314	1053210	190	5.4300282473119
314	1067461	191	6.3254843183846
314	1081680	192	7.8509615055178
314	1095868	193	6.2522535986235
314	1110540	194	2.2094162023778
314	1125210	195	2.0834731771849
314	1139875	196	1.8193611538366
314	1154979	197	1.7463689745143
314	1170051	198	2.2060989357288
314	1185112	199	2.0310298725026
314	1200665	200	0.973
315	1053210	190	2414.8925589694
315	1067461	191	2411.9627857993
315	1081680	192	2407.3062772232
315	1095868	193	2402.3654572419
315	1110540	194	2395.9558072921
315	1125210	195	2388.1006089912
315	1139875	196	2378.978760769
315	1154979	197	2369.4012116214
315	1170051	198	2359.8513236765
315	1185112	199	2350.290784059
315	1200665	200	2341.0180881016
316	1053210	190	1578.444866511
316	1067461	191	1579.5206639292
316	1081680	192	1581.4072434641
316	1095868	193	1586.4116134318
316	1110540	194	1592.9037058027
316	1125210	195	1600.8599395072
316	1139875	196	1610.0991150811
316	1154979	197	1619.7998529123
316	1170051	198	1629.4725737572
316	1185112	199	1639.1560832784
316	1200665	200	1649.0911634816
317	1067461	191	3.9973312404595
317	1081680	192	5.9655132869614
317	1095868	193	8.0251987055532
317	1110540	194	10.022291549822
317	1125210	195	12.077283199195
317	1139875	196	13.597041808876
317	1154979	197	13.66531432328
317	1170051	198	13.566644394974
317	1185112	199	13.582692384666
317	1200665	200	13.596724563934
318	1081680	192	1.9681820465019
318	1095868	193	2.0596854185918
318	1110540	194	1.9970928442688
318	1125210	195	2.054991649373
318	1139875	196	1.519758609681
318	1154979	197	0.068272514403798
318	1170051	198	-0.098669928305316
318	1185112	199	0.016047989691142
318	1200665	200	0.014032179268542
319	1081680	192	4.2470211938026
319	1095868	193	5.5284636503922
319	1110540	194	6.5101960467323
319	1125210	195	7.8366535299921
319	1139875	196	6.978222049931
319	1154979	197	2.2297984887385
319	1170051	198	1.6725169632209
319	1185112	199	2.0492499954432
319	1200665	200	2.0440939392049
320	1095868	193	2414.8450449788
320	1110540	194	2411.8481639778
320	1125210	195	2407.1918824697
320	1139875	196	2402.1068140625
320	1154979	197	2395.6393894139
320	1170051	198	2387.8540473643
320	1185112	199	2378.7425860802
320	1200665	200	2368.9560980042
321	1095868	193	1578.4623134006
321	1110540	194	1579.5627524639
321	1125210	195	1581.5231095897
321	1139875	196	1586.6735833399
321	1154979	197	1593.2241935218
321	1170051	198	1601.1096724672
321	1185112	199	1610.3383275038
321	1200665	200	1620.2506916858
322	1110540	194	4.0768216341553
322	1125210	195	6.1146311434992
322	1139875	196	8.1238958659168
322	1154979	197	10.07226857951
322	1170051	198	11.975930302181
322	1185112	199	13.751272715454
322	1200665	200	13.880561356815
323	1125210	195	2.0378095093439
323	1139875	196	2.0092647224176
323	1154979	197	1.9483727135928
323	1170051	198	1.9036617226712
323	1185112	199	1.7753424132732
323	1200665	200	0.12928864136057
324	1125210	195	4.4290585903548
324	1139875	196	5.4852832676338
324	1154979	197	6.4197949691156
324	1170051	198	7.340737888557
324	1185112	199	7.8971625527147
324	1200665	200	2.4591516963765
325	1139875	196	2414.8708323571
325	1154979	197	2412.0068498836
325	1170051	198	2407.3947947501
325	1185112	199	2402.6063379883
325	1200665	200	2396.4215075286
326	1139875	196	1578.4528444102
326	1154979	197	1579.5044838274
326	1170051	198	1581.3175874045
326	1185112	199	1586.1676344201
326	1200665	200	1592.4320156202
327	1154979	197	3.9035555463673
327	1170051	198	5.8214058272394
327	1185112	199	7.7054297537466
327	1200665	200	9.6555590937442
328	1170051	198	1.9178502808721
328	1185112	199	1.8840239265072
328	1200665	200	1.9501293399977
329	1170051	198	4.0997140834571
329	1185112	199	5.0226217989374
329	1200665	200	6.1968733187211
330	1185112	199	2414.8713181916
330	1200665	200	2411.9594073247
331	1185112	199	1578.4526660144
331	1200665	200	1579.5219044872
332	1200665	200	3.9654431967067

