version 3
run WithBeaconing-0-20240904-22:31:23-41088
attr configname WithBeaconing
attr datetime 20240904-22:31:23
attr datetimef 20240904-223123
attr experiment WithBeaconing
attr inifile omnetpp.ini
attr iterationvars ""
attr iterationvarsd ""
attr iterationvarsf ""
attr measurement ""
attr network VANET
attr processid 41088
attr repetition 0
attr replication #0
attr resultdir results
attr runnumber 0
attr seedset 0
config image-path ../../veins/images
config *.rsu[*].appl.sendBeacons true
config *.node[*].appl.sendBeacons true
config cmdenv-express-mode true
config cmdenv-autoflush true
config cmdenv-status-frequency 1s
config **.cmdenv-log-level info
config image-path ../../images
config network VANET
config debug-on-errors true
config print-undisposed true
config sim-time-limit 200s
config **.scalar-recording true
config **.vector-recording true
config *.playgroundSizeX 2500m
config *.playgroundSizeY 2500m
config *.playgroundSizeZ 50m
config *.annotations.draw true
config *.obstacles.obstacles "xmldoc(\"config.xml\", \"//AnalogueModel[@type='SimpleObstacleShadowing']/obstacles\")"
config *.manager.updateInterval 1s
config *.manager.host "\"localhost\""
config *.manager.port 9999
config *.manager.autoShutdown true
config *.manager.launchConfig "xmldoc(\"erlangen.launchd.xml\")"
config *.rsu[0].mobility.x 2000
config *.rsu[0].mobility.y 2000
config *.rsu[0].mobility.z 3
config *.rsu[*].applType "\"biblioteca_veins.RSUApp\""
config *.rsu[*].appl.headerLength "80 bit"
config *.rsu[*].appl.sendBeacons false
config *.rsu[*].appl.dataOnSch false
config *.rsu[*].appl.beaconInterval 1s
config *.rsu[*].appl.beaconUserPriority 7
config *.rsu[*].appl.dataUserPriority 5
config *.rsu[*].nic.phy80211p.antennaOffsetZ "0 m"
config *.connectionManager.sendDirect true
config *.connectionManager.maxInterfDist 2600m
config *.connectionManager.drawMaxIntfDist false
config *.**.nic.mac1609_4.useServiceChannel false
config *.**.nic.mac1609_4.txPower 20mW
config *.**.nic.mac1609_4.bitrate 6Mbps
config *.**.nic.phy80211p.minPowerLevel -110dBm
config *.**.nic.phy80211p.useNoiseFloor true
config *.**.nic.phy80211p.noiseFloor -98dBm
config *.**.nic.phy80211p.decider "xmldoc(\"config.xml\")"
config *.**.nic.phy80211p.analogueModels "xmldoc(\"config.xml\")"
config *.**.nic.phy80211p.usePropagationDelay true
config *.**.nic.phy80211p.antenna "xmldoc(\"antenna.xml\", \"/root/Antenna[@id='monopole']\")"
config *.node[*].nic.phy80211p.antennaOffsetY "0 m"
config *.node[*].nic.phy80211p.antennaOffsetZ "1.895 m"
config *.node[*].applType "\"biblioteca_veins.CarApp\""
config *.node[*].appl.headerLength "80 bit"
config *.node[*].appl.sendBeacons false
config *.node[*].appl.dataOnSch false
config *.node[*].appl.beaconInterval 1s
config *.node[*].veinsmobility.x 0
config *.node[*].veinsmobility.y 0
config *.node[*].veinsmobility.z 0
config *.node[*].veinsmobility.setHostSpeed false
config *.node[*0].veinsmobility.accidentCount 1
config *.node[*0].veinsmobility.accidentStart 73s
config *.node[*0].veinsmobility.accidentDuration 50s

vector 0 VANET.node[0].veinsmobility posx ETV
vector 1 VANET.node[0].veinsmobility posy ETV
vector 2 VANET.node[0].veinsmobility speed ETV
vector 3 VANET.node[0].veinsmobility acceleration ETV
vector 4 VANET.node[0].veinsmobility co2emission ETV
vector 5 VANET.node[1].veinsmobility posx ETV
vector 6 VANET.node[1].veinsmobility posy ETV
vector 7 VANET.node[1].veinsmobility speed ETV
vector 8 VANET.node[1].veinsmobility acceleration ETV
vector 9 VANET.node[1].veinsmobility co2emission ETV
vector 10 VANET.node[2].veinsmobility posx ETV
vector 11 VANET.node[2].veinsmobility posy ETV
vector 12 VANET.node[2].veinsmobility speed ETV
vector 13 VANET.node[2].veinsmobility acceleration ETV
vector 14 VANET.node[2].veinsmobility co2emission ETV
vector 15 VANET.node[3].veinsmobility posx ETV
vector 16 VANET.node[3].veinsmobility posy ETV
vector 17 VANET.node[3].veinsmobility speed ETV
vector 18 VANET.node[3].veinsmobility acceleration ETV
vector 19 VANET.node[3].veinsmobility co2emission ETV
vector 20 VANET.node[4].veinsmobility posx ETV
vector 21 VANET.node[4].veinsmobility posy ETV
vector 22 VANET.node[4].veinsmobility speed ETV
vector 23 VANET.node[4].veinsmobility acceleration ETV
vector 24 VANET.node[4].veinsmobility co2emission ETV
vector 25 VANET.node[5].veinsmobility posx ETV
vector 26 VANET.node[5].veinsmobility posy ETV
vector 27 VANET.node[5].veinsmobility speed ETV
vector 28 VANET.node[5].veinsmobility acceleration ETV
vector 29 VANET.node[5].veinsmobility co2emission ETV
vector 30 VANET.node[6].veinsmobility posx ETV
vector 31 VANET.node[6].veinsmobility posy ETV
vector 32 VANET.node[6].veinsmobility speed ETV
vector 33 VANET.node[6].veinsmobility acceleration ETV
vector 34 VANET.node[6].veinsmobility co2emission ETV
vector 35 VANET.node[7].veinsmobility posx ETV
vector 36 VANET.node[7].veinsmobility posy ETV
vector 37 VANET.node[7].veinsmobility speed ETV
vector 38 VANET.node[7].veinsmobility acceleration ETV
vector 39 VANET.node[7].veinsmobility co2emission ETV
vector 40 VANET.node[8].veinsmobility posx ETV
vector 41 VANET.node[8].veinsmobility posy ETV
vector 42 VANET.node[8].veinsmobility speed ETV
vector 43 VANET.node[8].veinsmobility acceleration ETV
vector 44 VANET.node[8].veinsmobility co2emission ETV
vector 45 VANET.node[9].veinsmobility posx ETV
vector 46 VANET.node[9].veinsmobility posy ETV
vector 47 VANET.node[9].veinsmobility speed ETV
vector 48 VANET.node[9].veinsmobility acceleration ETV
vector 49 VANET.node[9].veinsmobility co2emission ETV
vector 50 VANET.node[10].veinsmobility posx ETV
vector 51 VANET.node[10].veinsmobility posy ETV
vector 52 VANET.node[10].veinsmobility speed ETV
vector 53 VANET.node[10].veinsmobility acceleration ETV
vector 54 VANET.node[10].veinsmobility co2emission ETV
vector 55 VANET.node[11].veinsmobility posx ETV
vector 56 VANET.node[11].veinsmobility posy ETV
vector 57 VANET.node[11].veinsmobility speed ETV
vector 58 VANET.node[11].veinsmobility acceleration ETV
vector 59 VANET.node[11].veinsmobility co2emission ETV
vector 60 VANET.node[12].veinsmobility posx ETV
vector 61 VANET.node[12].veinsmobility posy ETV
vector 62 VANET.node[12].veinsmobility speed ETV
vector 63 VANET.node[12].veinsmobility acceleration ETV
vector 64 VANET.node[12].veinsmobility co2emission ETV
vector 65 VANET.node[13].veinsmobility posx ETV
vector 66 VANET.node[13].veinsmobility posy ETV
vector 67 VANET.node[13].veinsmobility speed ETV
vector 68 VANET.node[13].veinsmobility acceleration ETV
vector 69 VANET.node[13].veinsmobility co2emission ETV
vector 70 VANET.node[14].veinsmobility posx ETV
vector 71 VANET.node[14].veinsmobility posy ETV
vector 72 VANET.node[14].veinsmobility speed ETV
vector 73 VANET.node[14].veinsmobility acceleration ETV
vector 74 VANET.node[14].veinsmobility co2emission ETV
vector 75 VANET.node[15].veinsmobility posx ETV
vector 76 VANET.node[15].veinsmobility posy ETV
vector 77 VANET.node[15].veinsmobility speed ETV
vector 78 VANET.node[15].veinsmobility acceleration ETV
vector 79 VANET.node[15].veinsmobility co2emission ETV
vector 80 VANET.node[16].veinsmobility posx ETV
vector 81 VANET.node[16].veinsmobility posy ETV
vector 82 VANET.node[16].veinsmobility speed ETV
vector 83 VANET.node[16].veinsmobility acceleration ETV
vector 84 VANET.node[16].veinsmobility co2emission ETV
vector 85 VANET.node[17].veinsmobility posx ETV
vector 86 VANET.node[17].veinsmobility posy ETV
vector 87 VANET.node[17].veinsmobility speed ETV
vector 88 VANET.node[17].veinsmobility acceleration ETV
vector 89 VANET.node[17].veinsmobility co2emission ETV
vector 90 VANET.node[18].veinsmobility posx ETV
vector 91 VANET.node[18].veinsmobility posy ETV
vector 92 VANET.node[18].veinsmobility speed ETV
vector 93 VANET.node[18].veinsmobility acceleration ETV
vector 94 VANET.node[18].veinsmobility co2emission ETV
vector 95 VANET.node[19].veinsmobility posx ETV
vector 96 VANET.node[19].veinsmobility posy ETV
vector 97 VANET.node[19].veinsmobility speed ETV
vector 98 VANET.node[19].veinsmobility acceleration ETV
vector 99 VANET.node[19].veinsmobility co2emission ETV
vector 100 VANET.node[20].veinsmobility posx ETV
vector 101 VANET.node[20].veinsmobility posy ETV
vector 102 VANET.node[20].veinsmobility speed ETV
vector 103 VANET.node[20].veinsmobility acceleration ETV
vector 104 VANET.node[20].veinsmobility co2emission ETV
vector 105 VANET.node[21].veinsmobility posx ETV
vector 106 VANET.node[21].veinsmobility posy ETV
vector 107 VANET.node[21].veinsmobility speed ETV
vector 108 VANET.node[21].veinsmobility acceleration ETV
vector 109 VANET.node[21].veinsmobility co2emission ETV
vector 110 VANET.node[22].veinsmobility posx ETV
vector 111 VANET.node[22].veinsmobility posy ETV
vector 112 VANET.node[22].veinsmobility speed ETV
vector 113 VANET.node[22].veinsmobility acceleration ETV
vector 114 VANET.node[22].veinsmobility co2emission ETV
vector 115 VANET.node[23].veinsmobility posx ETV
vector 116 VANET.node[23].veinsmobility posy ETV
vector 117 VANET.node[23].veinsmobility speed ETV
vector 118 VANET.node[23].veinsmobility acceleration ETV
vector 119 VANET.node[23].veinsmobility co2emission ETV
vector 120 VANET.node[24].veinsmobility posx ETV
vector 121 VANET.node[24].veinsmobility posy ETV
vector 122 VANET.node[24].veinsmobility speed ETV
vector 123 VANET.node[24].veinsmobility acceleration ETV
vector 124 VANET.node[24].veinsmobility co2emission ETV
vector 125 VANET.node[25].veinsmobility posx ETV
vector 126 VANET.node[25].veinsmobility posy ETV
vector 127 VANET.node[25].veinsmobility speed ETV
vector 128 VANET.node[25].veinsmobility acceleration ETV
vector 129 VANET.node[25].veinsmobility co2emission ETV
vector 130 VANET.node[26].veinsmobility posx ETV
vector 131 VANET.node[26].veinsmobility posy ETV
vector 132 VANET.node[26].veinsmobility speed ETV
vector 133 VANET.node[26].veinsmobility acceleration ETV
vector 134 VANET.node[26].veinsmobility co2emission ETV
vector 135 VANET.node[27].veinsmobility posx ETV
vector 136 VANET.node[27].veinsmobility posy ETV
vector 137 VANET.node[27].veinsmobility speed ETV
vector 138 VANET.node[27].veinsmobility acceleration ETV
vector 139 VANET.node[27].veinsmobility co2emission ETV
vector 140 VANET.node[28].veinsmobility posx ETV
vector 141 VANET.node[28].veinsmobility posy ETV
vector 142 VANET.node[28].veinsmobility speed ETV
vector 143 VANET.node[28].veinsmobility acceleration ETV
vector 144 VANET.node[28].veinsmobility co2emission ETV
vector 145 VANET.node[29].veinsmobility posx ETV
vector 146 VANET.node[29].veinsmobility posy ETV
vector 147 VANET.node[29].veinsmobility speed ETV
vector 148 VANET.node[29].veinsmobility acceleration ETV
vector 149 VANET.node[29].veinsmobility co2emission ETV
vector 150 VANET.node[30].veinsmobility posx ETV
vector 151 VANET.node[30].veinsmobility posy ETV
vector 152 VANET.node[30].veinsmobility speed ETV
vector 153 VANET.node[30].veinsmobility acceleration ETV
vector 154 VANET.node[30].veinsmobility co2emission ETV
vector 155 VANET.node[31].veinsmobility posx ETV
vector 156 VANET.node[31].veinsmobility posy ETV
vector 157 VANET.node[31].veinsmobility speed ETV
vector 158 VANET.node[31].veinsmobility acceleration ETV
vector 159 VANET.node[31].veinsmobility co2emission ETV
vector 160 VANET.node[32].veinsmobility posx ETV
vector 161 VANET.node[32].veinsmobility posy ETV
vector 162 VANET.node[32].veinsmobility speed ETV
vector 163 VANET.node[32].veinsmobility acceleration ETV
vector 164 VANET.node[32].veinsmobility co2emission ETV
vector 165 VANET.node[33].veinsmobility posx ETV
vector 166 VANET.node[33].veinsmobility posy ETV
vector 167 VANET.node[33].veinsmobility speed ETV
vector 168 VANET.node[33].veinsmobility acceleration ETV
vector 169 VANET.node[33].veinsmobility co2emission ETV
vector 170 VANET.node[34].veinsmobility posx ETV
vector 171 VANET.node[34].veinsmobility posy ETV
vector 172 VANET.node[34].veinsmobility speed ETV
vector 173 VANET.node[34].veinsmobility acceleration ETV
vector 174 VANET.node[34].veinsmobility co2emission ETV
vector 175 VANET.node[35].veinsmobility posx ETV
vector 176 VANET.node[35].veinsmobility posy ETV
vector 177 VANET.node[35].veinsmobility speed ETV
vector 178 VANET.node[35].veinsmobility acceleration ETV
vector 179 VANET.node[35].veinsmobility co2emission ETV
vector 180 VANET.node[36].veinsmobility posx ETV
vector 181 VANET.node[36].veinsmobility posy ETV
vector 182 VANET.node[36].veinsmobility speed ETV
vector 183 VANET.node[36].veinsmobility acceleration ETV
vector 184 VANET.node[36].veinsmobility co2emission ETV
vector 185 VANET.node[37].veinsmobility posx ETV
vector 186 VANET.node[37].veinsmobility posy ETV
vector 187 VANET.node[37].veinsmobility speed ETV
vector 188 VANET.node[37].veinsmobility acceleration ETV
vector 189 VANET.node[37].veinsmobility co2emission ETV
vector 190 VANET.node[38].veinsmobility posx ETV
vector 191 VANET.node[38].veinsmobility posy ETV
vector 192 VANET.node[38].veinsmobility speed ETV
vector 193 VANET.node[38].veinsmobility acceleration ETV
vector 194 VANET.node[38].veinsmobility co2emission ETV
vector 195 VANET.node[39].veinsmobility posx ETV
vector 196 VANET.node[39].veinsmobility posy ETV
vector 197 VANET.node[39].veinsmobility speed ETV
vector 198 VANET.node[39].veinsmobility acceleration ETV
vector 199 VANET.node[39].veinsmobility co2emission ETV
vector 200 VANET.node[40].veinsmobility posx ETV
vector 201 VANET.node[40].veinsmobility posy ETV
vector 202 VANET.node[40].veinsmobility speed ETV
vector 203 VANET.node[40].veinsmobility acceleration ETV
vector 204 VANET.node[40].veinsmobility co2emission ETV
vector 205 VANET.node[41].veinsmobility posx ETV
vector 206 VANET.node[41].veinsmobility posy ETV
vector 207 VANET.node[41].veinsmobility speed ETV
vector 208 VANET.node[41].veinsmobility acceleration ETV
vector 209 VANET.node[41].veinsmobility co2emission ETV
vector 210 VANET.node[42].veinsmobility posx ETV
vector 211 VANET.node[42].veinsmobility posy ETV
vector 212 VANET.node[42].veinsmobility speed ETV
vector 213 VANET.node[42].veinsmobility acceleration ETV
vector 214 VANET.node[42].veinsmobility co2emission ETV
vector 215 VANET.node[43].veinsmobility posx ETV
vector 216 VANET.node[43].veinsmobility posy ETV
vector 217 VANET.node[43].veinsmobility speed ETV
vector 218 VANET.node[43].veinsmobility acceleration ETV
vector 219 VANET.node[43].veinsmobility co2emission ETV
vector 220 VANET.node[44].veinsmobility posx ETV
vector 221 VANET.node[44].veinsmobility posy ETV
vector 222 VANET.node[44].veinsmobility speed ETV
vector 223 VANET.node[44].veinsmobility acceleration ETV
vector 224 VANET.node[44].veinsmobility co2emission ETV
vector 225 VANET.node[45].veinsmobility posx ETV
vector 226 VANET.node[45].veinsmobility posy ETV
vector 227 VANET.node[45].veinsmobility speed ETV
vector 228 VANET.node[45].veinsmobility acceleration ETV
vector 229 VANET.node[45].veinsmobility co2emission ETV
vector 230 VANET.node[46].veinsmobility posx ETV
vector 231 VANET.node[46].veinsmobility posy ETV
vector 232 VANET.node[46].veinsmobility speed ETV
vector 233 VANET.node[46].veinsmobility acceleration ETV
vector 234 VANET.node[46].veinsmobility co2emission ETV
vector 235 VANET.node[47].veinsmobility posx ETV
vector 236 VANET.node[47].veinsmobility posy ETV
vector 237 VANET.node[47].veinsmobility speed ETV
vector 238 VANET.node[47].veinsmobility acceleration ETV
vector 239 VANET.node[47].veinsmobility co2emission ETV
0	11	1	2414.8476884116
0	40	2	2411.8243290941
0	69	3	2407.1592244543
0	98	4	2402.288200066
0	158	5	2396.1394374635
0	218	6	2388.6993875942
0	279	7	2379.889221533
0	384	8	2370.1207192459
0	490	9	2360.3141803208
0	596	10	2350.5099475634
0	757	11	2341.0010868867
0	918	12	2334.5620136983
0	1081	13	2337.6803779466
0	1303	14	2348.3497968862
0	1526	15	2358.6961674725
0	1750	16	2371.6616533546
0	2046	17	2385.4706804305
0	2342	18	2399.3588350668
0	2638	19	2412.4541998667
0	3018	20	2421.4418196582
0	3400	21	2428.417609864
0	3782	22	2431.468930052
0	4258	23	2433.1513403206
0	4736	24	2435.1237040944
0	5215	25	2437.2173147583
0	5809	26	2438.6437980286
0	6396	27	2439.5074353185
0	6983	28	2440.517813261
0	7690	29	2441.5286354903
0	8398	30	2442.5392864447
0	9106	31	2443.5505626462
0	9949	32	2444.5611125134
0	10781	33	2445.5724211388
0	11614	34	2446.5834693939
0	12592	35	2447.5934051003
0	13560	36	2448.6036931522
0	14513	37	2449.6148620235
0	15617	38	2450.6248001783
0	16701	39	2449.5880553933
0	17770	40	2448.4757357414
0	18995	41	2447.3635385588
0	20217	42	2446.250303259
0	21438	43	2445.1365203297
0	22845	44	2444.0235521834
0	24246	45	2442.9111769209
0	25653	46	2441.7982721732
0	27243	47	2440.6856421625
0	28818	48	2439.7151308154
0	30377	49	2438.7725309408
0	32136	50	2437.9056889905
0	33866	51	2432.8785054281
0	35589	52	2422.5273191113
0	37522	53	2409.439604845
0	39438	54	2395.517893619
0	41353	55	2381.592286239
0	43490	56	2367.6659531716
0	45620	57	2353.7601239877
0	47761	58	2339.8337569573
0	50111	59	2325.9069679289
0	52453	60	2311.9542202253
0	54773	61	2298.0325140053
0	57320	62	2284.0857072632
0	59847	63	2270.1754193477
0	62371	64	2256.2378749268
0	65101	65	2242.3725172955
0	67826	66	2228.5623045168
0	70545	67	2214.8068758136
0	73456	68	2201.6159272967
0	76320	69	2188.41049514
0	79141	70	2175.4595331684
0	82166	71	2163.4460695032
0	85130	72	2152.2029822947
0	88071	73	2144.5427125699
0	91264	74	2140.7603855053
0	94444	75	2140.3234504706
0	97648	76	2140.3234504706
0	101098	77	2140.3234504706
0	104538	78	2140.3234504706
0	107989	79	2140.3234504706
0	111704	80	2140.3234504706
0	115386	81	2140.3234504706
0	119041	82	2140.3234504706
0	122992	83	2140.3234504706
0	126930	84	2140.3234504706
0	131003	85	2140.3234504706
0	135227	86	2140.3234504706
0	141279	87	2140.3234504706
0	145470	88	2140.3234504706
0	153129	89	2140.3234504706
0	157550	90	2140.3234504706
0	162625	91	2140.3234504706
0	167322	92	2140.3234504706
0	172003	93	2140.3234504706
0	176668	94	2140.3234504706
0	181609	95	2140.3234504706
0	186497	96	2140.3234504706
0	191352	97	2140.3234504706
0	196458	98	2140.3234504706
0	201534	99	2140.3234504706
0	206562	100	2140.3234504706
0	211839	101	2140.3234504706
0	217111	102	2140.3234504706
0	222347	103	2140.3234504706
0	227899	104	2140.3234504706
0	233471	105	2140.3234504706
0	239073	106	2140.3234504706
0	245057	107	2140.3234504706
0	251072	108	2140.3234504706
0	257126	109	2140.3234504706
0	263486	110	2140.3234504706
0	269821	111	2140.3234504706
0	276141	112	2140.3234504706
0	282793	113	2140.3234504706
0	289437	114	2140.3234504706
0	296042	115	2140.3234504706
0	302959	116	2140.3234504706
0	309832	117	2140.3234504706
0	316651	118	2140.3234504706
0	323772	119	2140.3234504706
0	330799	120	2140.3234504706
0	337741	121	2140.3234504706
0	344962	122	2140.3234504706
0	352141	123	2140.3234504706
0	359218	124	2139.2991757134
0	366622	125	2136.740978117
0	373959	126	2133.0437330272
0	381213	127	2128.0124995244
0	388842	128	2121.6776393328
0	396379	129	2113.9053156064
0	403862	130	2104.7718132839
0	411681	131	2095.2426245916
0	419427	132	2085.7055441276
0	427070	133	2076.184415311
0	435138	134	2066.655969861
0	443122	135	2057.1336877497
0	451063	136	2047.5928952894
0	459347	137	2037.6052178263
0	467600	138	2027.631729265
0	475770	139	2017.6146613889
0	484360	140	2007.6105792237
0	492884	141	1997.6002182011
0	501362	142	1987.6009788642
0	510249	143	1977.6126411132
0	519052	144	1967.6241748743
1	11	1	1578.4613427464
1	40	2	1579.5715045081
1	69	3	1581.5561876604
1	98	4	1586.4898643075
1	158	5	1592.7177137369
1	218	6	1600.2534592729
1	279	7	1609.1769437566
1	384	8	1619.0710908128
1	490	9	1629.0037637418
1	596	10	1638.9341008412
1	757	11	1649.1129276818
1	918	12	1661.0453354148
1	1081	13	1673.5713017788
1	1303	14	1682.4825292248
1	1526	15	1691.8131453674
1	1750	16	1695.5671389326
1	2046	17	1697.3762977775
1	2342	18	1698.7149431584
1	2638	19	1699.9531973498
1	3018	20	1700.8030368192
1	3400	21	1701.4822415169
1	3782	22	1709.488976148
1	4258	23	1720.5600911779
1	4736	24	1733.5392477075
1	5215	25	1747.3162704222
1	5809	26	1761.1584832035
1	6396	27	1775.0702432813
1	6983	28	1788.9649324082
1	7690	29	1802.8657313576
1	8398	30	1816.7641749373
1	9106	31	1830.6712168986
1	9949	32	1844.5682703312
1	10781	33	1858.4757581847
1	11614	34	1872.3796654344
1	12592	35	1886.2682729438
1	13560	36	1900.1617258992
1	14513	37	1914.0672918586
1	15617	38	1927.95593304
1	16701	39	1941.8192613758
1	17770	40	1955.7024557721
1	18995	41	1969.5841215905
1	20217	42	1983.4787444612
1	21438	43	1997.3802024601
1	22845	44	2011.2714909082
1	24246	45	2025.1553793969
1	25653	46	2039.0458765477
1	27243	47	2052.9329446238
1	28818	48	2066.8462265795
1	30377	49	2080.7728807703
1	32136	50	2094.6498483503
1	33866	51	2107.3969092406
1	35589	52	2116.410831539
1	37522	53	2120.9360540062
1	39438	54	2120.5048353085
1	41353	55	2120.0344859883
1	43490	56	2119.5641121576
1	45620	57	2119.0944308629
1	47761	58	2118.6240558857
1	50111	59	2118.1536666537
1	52453	60	2117.6824006466
1	54773	61	2117.2121830918
1	57320	62	2116.7411177447
1	59847	63	2116.2712858524
1	62371	64	2115.8005333487
1	65101	65	2114.7955725584
1	67826	66	2112.8371776454
1	70545	67	2110.6451732265
1	73456	68	2106.1714176713
1	76320	69	2101.6927499389
1	79141	70	2096.6090699211
1	82166	71	2089.5369335469
1	85130	72	2082.9183056299
1	88071	73	2078.4088257942
1	91264	74	2076.1822295729
1	94444	75	2075.9250128167
1	97648	76	2075.9250128167
1	101098	77	2075.9250128167
1	104538	78	2075.9250128167
1	107989	79	2075.9250128167
1	111704	80	2075.9250128167
1	115386	81	2075.9250128167
1	119041	82	2075.9250128167
1	122992	83	2075.9250128167
1	126930	84	2075.9250128167
1	131003	85	2075.9250128167
1	135227	86	2075.9250128167
1	141279	87	2075.9250128167
1	145470	88	2075.9250128167
1	153129	89	2075.9250128167
1	157550	90	2075.9250128167
1	162625	91	2075.9250128167
1	167322	92	2075.9250128167
1	172003	93	2075.9250128167
1	176668	94	2075.9250128167
1	181609	95	2075.9250128167
1	186497	96	2075.9250128167
1	191352	97	2075.9250128167
1	196458	98	2075.9250128167
1	201534	99	2075.9250128167
1	206562	100	2075.9250128167
1	211839	101	2075.9250128167
1	217111	102	2075.9250128167
1	222347	103	2075.9250128167
1	227899	104	2075.9250128167
1	233471	105	2075.9250128167
1	239073	106	2075.9250128167
1	245057	107	2075.9250128167
1	251072	108	2075.9250128167
1	257126	109	2075.9250128167
1	263486	110	2075.9250128167
1	269821	111	2075.9250128167
1	276141	112	2075.9250128167
1	282793	113	2075.9250128167
1	289437	114	2075.9250128167
1	296042	115	2075.9250128167
1	302959	116	2075.9250128167
1	309832	117	2075.9250128167
1	316651	118	2075.9250128167
1	323772	119	2075.9250128167
1	330799	120	2075.9250128167
1	337741	121	2075.9250128167
1	344962	122	2075.9250128167
1	352141	123	2075.9250128167
1	359218	124	2075.1267298609
1	366622	125	2072.866368236
1	373959	126	2068.9195549712
1	381213	127	2063.5487075839
1	388842	128	2056.7862372501
1	396379	129	2048.4892729856
1	403862	130	2038.7392490497
1	411681	131	2028.5668294709
1	419427	132	2018.3859854173
1	427070	133	2008.2221697653
1	435138	134	1998.0505435988
1	443122	135	1987.8854968026
1	451063	136	1977.7462070258
1	459347	137	1968.037196531
1	467600	138	1958.3419790519
1	475770	139	1948.6043981677
1	484360	140	1938.8794406792
1	492884	141	1929.1483795205
1	501362	142	1919.4281297401
1	510249	143	1909.7184773795
1	519052	144	1900.0087001156
2	40	2	4.1061966058897
2	69	3	6.0195495591482
2	98	4	7.7148368984793
2	158	5	9.5879868385225
2	218	6	11.391389363371
2	279	7	13.513839789145
2	384	8	13.99235115225
2	490	9	13.890224446259
2	596	10	13.976677174468
2	757	11	13.994826577434
2	918	12	13.923680325528
2	1081	13	13.923542996629
2	1303	14	13.91007151508
2	1526	15	13.964598868005
2	1750	16	13.995233640105
2	2046	17	13.952304350403
2	2342	18	13.956911946491
2	2638	19	11.503494614513
2	3018	20	7.0034946145128
2	3400	21	7.8970062485022
2	3782	22	10.10483181514
2	4258	23	11.990706169653
2	4736	24	13.981089308816
2	5215	25	13.965594365916
2	5809	26	13.989059597438
2	6396	27	13.956378436291
2	6983	28	13.910982951869
2	7690	29	13.88918493646
2	8398	30	13.908189346099
2	9106	31	13.983992603337
2	9949	32	13.971500478752
2	10781	33	13.873081948087
2	11614	34	13.985133641064
2	12592	35	13.886848415199
2	13560	36	13.876205747321
2	14513	37	13.967912819823
2	15617	38	13.871047234884
2	16701	39	13.89239756926
2	17770	40	13.872267716837
2	18995	41	13.999815066161
2	20217	42	13.964707984752
2	21438	43	13.906584702837
2	22845	44	13.922364303169
2	24246	45	13.929034490574
2	25653	46	13.93922677479
2	27243	47	13.924399639922
2	28818	48	13.96850544848
2	30377	49	13.986686690277
2	32136	50	13.935194088209
2	33866	51	13.930097484484
2	35589	52	13.948393711536
2	37522	53	13.882971800906
2	39438	54	13.87138918183
2	41353	55	13.933780807857
2	43490	56	13.942265776542
2	45620	57	13.95140511482
2	47761	58	13.886548467774
2	50111	59	13.920721456567
2	52453	60	13.906796863726
2	54773	61	13.917803910668
2	57320	62	13.924582225601
2	59847	63	13.959688465288
2	62371	64	13.957318032989
2	65101	65	13.940553226951
2	67826	66	13.879855337965
2	70545	67	13.977758804618
2	73456	68	13.914176650653
2	76320	69	13.928041475909
2	79141	70	13.977535404016
2	82166	71	13.928572678084
2	85130	72	11.364046791626
2	88071	73	6.8640467916256
2	91264	74	2.3640467916256
2	94444	75	0
2	97648	76	0
2	101098	77	0
2	104538	78	0
2	107989	79	0
2	111704	80	0
2	115386	81	0
2	119041	82	0
2	122992	83	0
2	126930	84	0
2	131003	85	0
2	135227	86	0
2	141279	87	0
2	145470	88	0
2	153129	89	0
2	157550	90	0
2	162625	91	0
2	167322	92	0
2	172003	93	0
2	176668	94	0
2	181609	95	0
2	186497	96	0
2	191352	97	0
2	196458	98	0
2	201534	99	0
2	206562	100	0
2	211839	101	0
2	217111	102	0
2	222347	103	0
2	227899	104	0
2	233471	105	0
2	239073	106	0
2	245057	107	0
2	251072	108	0
2	257126	109	0
2	263486	110	0
2	269821	111	0
2	276141	112	0
2	282793	113	0
2	289437	114	0
2	296042	115	0
2	302959	116	0
2	309832	117	0
2	316651	118	0
2	323772	119	0
2	330799	120	0
2	337741	121	0
2	344962	122	0
2	352141	123	0
2	359218	124	2.2219942613752
2	366622	125	4.3816652589273
2	373959	126	6.271098397682
2	381213	127	8.1846742143464
2	388842	128	10.238758130733
2	396379	129	12.368734642219
2	403862	130	13.962109271805
2	411681	131	13.914205637665
2	419427	132	13.944517719341
2	427070	133	13.932432430719
2	435138	134	13.953789253703
2	443122	135	13.898576378347
2	451063	136	13.923362842468
2	459347	137	13.87346287617
2	467600	138	13.915164393331
2	475770	139	13.962726174931
2	484360	140	13.991457488488
2	492884	141	13.93669091891
2	501362	142	13.946966261289
2	510249	143	13.874023362922
2	519052	144	13.888220233922
3	69	3	1.9133529532584
3	98	4	1.6952873393311
3	158	5	1.8731499400432
3	218	6	1.8034025248489
3	279	7	2.1224504257739
3	384	8	0.47851136310433
3	490	9	-0.1021267059911
3	596	10	0.086452728209551
3	757	11	0.018149402965792
3	918	12	-0.071146251906175
3	1081	13	-0.0001373288989992
3	1303	14	-0.013471481548622
3	1526	15	0.054527352924923
3	1750	16	0.03063477210002
3	2046	17	-0.04292928970186
3	2342	18	0.0046075960877356
3	2638	19	-2.4534173319781
3	3018	20	-4.5
3	3400	21	0.8935116339894
3	3782	22	2.2078255666373
3	4258	23	1.8858743545134
3	4736	24	1.9903831391631
3	5215	25	-0.01549494290026
3	5809	26	0.023465231521987
3	6396	27	-0.032681161146611
3	6983	28	-0.045395484422334
3	7690	29	-0.021798015409148
3	8398	30	0.019004409639164
3	9106	31	0.075803257238585
3	9949	32	-0.012492124584968
3	10781	33	-0.098418530665803
3	11614	34	0.11205169297755
3	12592	35	-0.098285225864965
3	13560	36	-0.01064266787842
3	14513	37	0.091707072502468
3	15617	38	-0.096865584938786
3	16701	39	0.021350334375166
3	17770	40	-0.020129852422979
3	18995	41	0.12754734932445
3	20217	42	-0.035107081409079
3	21438	43	-0.058123281914741
3	22845	44	0.015779600332026
3	24246	45	0.0066701874043797
3	25653	46	0.010192284216172
3	27243	47	-0.014827134867664
3	28818	48	0.044105808557942
3	30377	49	0.018181241797283
3	32136	50	-0.051492602068466
3	33866	51	-0.0050966037251055
3	35589	52	0.018296227052343
3	37522	53	-0.065421910630539
3	39438	54	-0.011582619075197
3	41353	55	0.062391626026946
3	43490	56	0.0084849686850799
3	45620	57	0.0091393382777465
3	47761	58	-0.064856647045817
3	50111	59	0.034172988792415
3	52453	60	-0.013924592840485
3	54773	61	0.011007046941668
3	57320	62	0.0067783149331806
3	59847	63	0.035106239686721
3	62371	64	-0.0023704322986315
3	65101	65	-0.016764806038699
3	67826	66	-0.060697888985743
3	70545	67	0.097903466653079
3	73456	68	-0.063582153965253
3	76320	69	0.013864825256169
3	79141	70	0.049493928106967
3	82166	71	-0.048962725931778
3	85130	72	-2.5645258864584
3	88071	73	-4.5
3	91264	74	-4.5
3	94444	75	-2.3640467916256
3	97648	76	0
3	101098	77	0
3	104538	78	0
3	107989	79	0
3	111704	80	0
3	115386	81	0
3	119041	82	0
3	122992	83	0
3	126930	84	0
3	131003	85	0
3	135227	86	0
3	141279	87	0
3	145470	88	0
3	153129	89	0
3	157550	90	0
3	162625	91	0
3	167322	92	0
3	172003	93	0
3	176668	94	0
3	181609	95	0
3	186497	96	0
3	191352	97	0
3	196458	98	0
3	201534	99	0
3	206562	100	0
3	211839	101	0
3	217111	102	0
3	222347	103	0
3	227899	104	0
3	233471	105	0
3	239073	106	0
3	245057	107	0
3	251072	108	0
3	257126	109	0
3	263486	110	0
3	269821	111	0
3	276141	112	0
3	282793	113	0
3	289437	114	0
3	296042	115	0
3	302959	116	0
3	309832	117	0
3	316651	118	0
3	323772	119	0
3	330799	120	0
3	337741	121	0
3	344962	122	0
3	352141	123	0
3	359218	124	2.2219942613752
3	366622	125	2.1596709975521
3	373959	126	1.8894331387547
3	381213	127	1.9135758166644
3	388842	128	2.0540839163866
3	396379	129	2.1299765114859
3	403862	130	1.593374629586
3	411681	131	-0.047903634139804
3	419427	132	0.030312081675511
3	427070	133	-0.012085288621019
3	435138	134	0.021356822983362
3	443122	135	-0.055212875355501
3	451063	136	0.024786464120261
3	459347	137	-0.049899966297671
3	467600	138	0.041701517160982
3	475770	139	0.047561781599653
3	484360	140	0.028731313557364
3	492884	141	-0.054766569577623
3	501362	142	0.0102753423783
3	510249	143	-0.0729428983666
3	519052	144	0.014196870999875
4	69	3	4.1962556146115
4	98	4	4.6765885426193
4	158	5	5.9822455727343
4	218	6	6.7469998477461
4	279	7	8.9023657158011
4	384	8	3.651678681686
4	490	9	1.6857621818206
4	596	10	2.3276633668785
4	757	11	2.0995306276608
4	918	12	1.7923040941768
4	1081	13	2.0305681317735
4	1303	14	1.9844951865828
4	1526	15	2.2187318873595
4	1750	16	2.1416854339172
4	2046	17	1.8896148890835
4	2342	18	2.0499339673421
4	2638	19	0.973
4	3018	20	0.973
4	3400	21	3.236958348016
4	3782	22	7.0694109561587
4	4258	23	7.2974163894139
4	4736	24	8.7433911631671
4	5215	25	1.9831721788576
4	5809	26	2.116835898497
4	6396	27	1.9244585801898
4	6983	28	1.8775583559564
4	7690	29	1.9545657515643
4	8398	30	2.0931646705581
4	9106	31	2.2926746988581
4	9949	32	1.993865292131
4	10781	33	1.6968396252803
4	11614	34	2.4149847823944
4	12592	35	1.6983583398882
4	13560	36	1.9906198998388
4	14513	37	2.3442713071536
4	15617	38	1.7018725964397
4	16701	39	2.0993392475273
4	17770	40	1.9585122345881
4	18995	41	2.4691677522194
4	20217	42	1.9170802753567
4	21438	43	1.8345014514108
4	22845	44	2.0838538984303
4	24246	45	2.0539801513469
4	25653	46	2.0668686152862
4	27243	47	1.9813596940184
4	28818	48	2.1840996762636
4	30377	49	2.0987681125428
4	32136	50	1.8592856847688
4	33866	51	2.0145873760113
4	35589	52	2.0950692067684
4	37522	53	1.8080099866508
4	39438	54	1.9870007069688
4	41353	55	2.2415869227426
4	43490	56	2.0614496349521
4	45620	57	2.0646020593826
4	47761	58	1.8102089718445
4	50111	59	2.1453880261281
4	52453	60	1.9826536733129
4	54773	61	2.0673636130683
4	57320	62	2.0538817544551
4	59847	63	2.1528270365066
4	62371	64	2.0265038417738
4	65101	65	1.9764402783138
4	67826	66	1.823544423566
4	70545	67	2.3663700564531
4	73456	68	1.816863137639
4	76320	69	2.0780272006119
4	79141	70	2.2032702170206
4	82166	71	1.8671845150559
4	85130	72	0.973
4	88071	73	0.973
4	91264	74	0.973
4	94444	75	0.973
4	97648	76	0.973
4	101098	77	0.973
4	104538	78	0.973
4	107989	79	0.973
4	111704	80	0.973
4	115386	81	0.973
4	119041	82	0.973
4	122992	83	0.973
4	126930	84	0.973
4	131003	85	0.973
4	135227	86	0.973
4	141279	87	0.973
4	145470	88	0.973
4	153129	89	0.973
4	157550	90	0.973
4	162625	91	0.973
4	167322	92	0.973
4	172003	93	0.973
4	176668	94	0.973
4	181609	95	0.973
4	186497	96	0.973
4	191352	97	0.973
4	196458	98	0.973
4	201534	99	0.973
4	206562	100	0.973
4	211839	101	0.973
4	217111	102	0.973
4	222347	103	0.973
4	227899	104	0.973
4	233471	105	0.973
4	239073	106	0.973
4	245057	107	0.973
4	251072	108	0.973
4	257126	109	0.973
4	263486	110	0.973
4	269821	111	0.973
4	276141	112	0.973
4	282793	113	0.973
4	289437	114	0.973
4	296042	115	0.973
4	302959	116	0.973
4	309832	117	0.973
4	316651	118	0.973
4	323772	119	0.973
4	330799	120	0.973
4	337741	121	0.973
4	344962	122	0.973
4	352141	123	0.973
4	359218	124	2.4080817491368
4	366622	125	3.6097150181135
4	373959	126	4.2908662920557
4	381213	127	5.3300190940896
4	388842	128	6.7716083595646
4	396379	129	8.2306431470796
4	403862	130	7.3964630212997
4	411681	131	1.8694407969886
4	419427	132	2.1350370330868
4	427070	133	1.9913567143412
4	435138	134	2.1059366793651
4	443122	135	1.8435469109796
4	451063	136	2.1141823143441
4	459347	137	1.8590913255925
4	467600	138	2.1700231934041
4	475770	139	2.1950764783891
4	484360	140	2.1348521217125
4	492884	141	1.848423466467
4	501362	142	2.0679571445659
4	510249	143	1.7820942605596
4	519052	144	2.0749497938408
5	98	4	2414.8767583254
5	158	5	2411.8725636174
5	218	6	2407.2970525089
5	279	7	2402.4626210862
5	384	8	2396.3056860371
5	490	9	2388.8743536096
5	596	10	2380.097228827
5	757	11	2370.3507264333
5	918	12	2360.5878487076
5	1081	13	2350.7849318213
5	1303	14	2341.2418729237
5	1526	15	2334.6305580324
5	1750	16	2337.3467480277
5	2046	17	2348.0519014368
5	2342	18	2358.3998493504
5	2638	19	2371.2788021446
5	3018	20	2385.0887639745
5	3400	21	2398.4985461925
5	3782	22	2411.2485283293
5	4258	23	2420.6905829484
5	4736	24	2427.6440450998
5	5215	25	2431.3031180431
5	5809	26	2432.9057471878
5	6396	27	2434.8184996871
5	6983	28	2436.9106889558
5	7690	29	2438.5031214217
5	8398	30	2439.359314087
5	9106	31	2440.3695716034
5	9949	32	2441.3815056744
5	10781	33	2442.392207776
5	11614	34	2443.4019859718
5	12592	35	2444.4122552489
5	13560	36	2445.4251439738
5	14513	37	2446.4367595227
5	15617	38	2447.4467230743
5	16701	39	2448.4574488286
5	17770	40	2449.467800329
5	18995	41	2450.4780716181
5	20217	42	2449.7461704329
5	21438	43	2448.6331060936
5	22845	44	2447.5209445587
5	24246	45	2446.407523851
5	25653	46	2445.2946584851
5	27243	47	2444.1824360332
5	28818	48	2443.0706190476
5	30377	49	2441.9568028547
5	32136	50	2440.8451110823
5	33866	51	2439.8503503047
5	35589	52	2438.9091742415
5	37522	53	2438.2310626655
5	39438	54	2433.9050446447
5	41353	55	2424.21615465
5	43490	56	2411.3460908785
5	45620	57	2397.4706148925
5	47761	58	2383.5587488873
5	50111	59	2369.633660475
5	52453	60	2355.7048479554
5	54773	61	2341.7904321874
5	57320	62	2327.8638711022
5	59847	63	2313.9188814831
5	62371	64	2299.9979078089
5	65101	65	2286.0826278217
5	67826	66	2272.1469357561
5	70545	67	2258.2076214411
5	73456	68	2244.3155730069
5	76320	69	2230.5273849192
5	79141	70	2216.7446519198
5	82166	71	2203.5167182724
5	85130	72	2190.3178840362
5	88071	73	2177.2322881214
5	91264	74	2166.0575198019
5	94444	75	2157.6433227622
5	97648	76	2151.7978679298
5	101098	77	2148.12850579
5	104538	78	2146.1504391922
5	107989	79	2145.2176430746
5	111704	80	2144.8457426265
5	115386	81	2144.7095674569
5	119041	82	2144.6606226763
5	122992	83	2144.6429435182
5	126930	84	2144.6366379777
5	131003	85	2144.6343920679
5	135227	86	2144.6335903119
5	141279	87	2144.6333007435
5	145470	88	2144.633195825
5	153129	89	2144.6331583896
5	157550	90	2144.633145728
5	162625	91	2144.633145728
5	167322	92	2144.633145728
5	172003	93	2144.633145728
5	176668	94	2144.633145728
5	181609	95	2144.633145728
5	186497	96	2144.633145728
5	191352	97	2144.633145728
5	196458	98	2144.633145728
5	201534	99	2144.633145728
5	206562	100	2144.633145728
5	211839	101	2144.633145728
5	217111	102	2144.633145728
5	222347	103	2144.633145728
5	227899	104	2144.633145728
5	233471	105	2144.633145728
5	239073	106	2144.633145728
5	245057	107	2144.633145728
5	251072	108	2144.633145728
5	257126	109	2144.633145728
5	263486	110	2144.633145728
5	269821	111	2144.633145728
5	276141	112	2144.633145728
5	282793	113	2144.633145728
5	289437	114	2144.633145728
5	296042	115	2144.633145728
5	302959	116	2144.633145728
5	309832	117	2144.633145728
5	316651	118	2144.633145728
5	323772	119	2144.633145728
5	330799	120	2144.633145728
5	337741	121	2144.633145728
5	344962	122	2144.633145728
5	352141	123	2144.633145728
5	359218	124	2144.2754340136
5	366622	125	2142.4846802864
5	373959	126	2139.1451827293
5	381213	127	2134.908475054
5	388842	128	2127.149872842
5	396379	129	2120.4387881567
5	403862	130	2112.3739490838
5	411681	131	2103.147663089
5	419427	132	2093.629591034
5	427070	133	2084.0951069517
5	435138	134	2074.579488395
5	443122	135	2065.0639168544
5	451063	136	2055.5512337412
5	459347	137	2046.0342183947
5	467600	138	2036.0487979884
5	475770	139	2026.0452900858
5	484360	140	2016.0563570814
5	492884	141	2006.0729706188
5	501362	142	1996.0847308773
5	510249	143	1986.0883360283
5	519052	144	1976.106136184
6	98	4	1578.4506684253
6	158	5	1579.5537930429
6	218	6	1581.4165868293
6	279	7	1586.3131998433
6	384	8	1592.5493268352
6	490	9	1600.0762428036
6	596	10	1608.9662610246
6	757	11	1618.8381252186
6	918	12	1628.7265753681
6	1081	13	1638.6555796713
6	1303	14	1648.8046840783
6	1526	15	1660.6325348346
6	1750	16	1673.301875555
6	2046	17	1682.2138796467
6	2342	18	1691.5459182626
6	2638	19	1695.5099147679
6	3018	20	1697.3308411958
6	3400	21	1698.6335971011
6	3782	22	1699.8391930545
6	4258	23	1700.7320023719
6	4736	24	1701.2941834759
6	5215	25	1708.3978488175
6	5809	26	1718.9439634858
6	6396	27	1731.5308475178
6	6983	28	1745.2985167308
6	7690	29	1759.1189484736
6	8398	30	1773.033284259
6	9106	31	1786.9263172904
6	9949	32	1800.8424062571
6	10781	33	1814.7415532097
6	11614	34	1828.6279946407
6	12592	35	1842.5211894047
6	13560	36	1856.4504067414
6	14513	37	1870.362115399
6	15617	38	1884.2511058366
6	16701	39	1898.150578063
6	17770	40	1912.0449035605
6	18995	41	1925.9381259941
6	20217	42	1939.8457802581
6	21438	43	1953.7382693188
6	22845	44	1967.6194902081
6	24246	45	1981.5164272105
6	25653	46	1995.4064328251
6	27243	47	2009.2884140396
6	28818	48	2023.165334505
6	30377	49	2037.0672076773
6	32136	50	2050.942565321
6	33866	51	2064.8483957723
6	35589	52	2078.754013543
6	37522	53	2092.6537938379
6	39438	54	2105.6893007364
6	41353	55	2115.3934075218
6	43490	56	2120.5034639826
6	45620	57	2120.5707901428
6	47761	58	2120.100904949
6	50111	59	2119.6305731572
6	52453	60	2119.160115581
6	54773	61	2118.6901442679
6	57320	62	2118.2197627351
6	59847	63	2117.748758764
6	62371	64	2117.2785659507
6	65101	65	2116.8085654471
6	67826	66	2116.3378755087
6	70545	67	2115.8670632252
6	73456	68	2115.0711128758
6	76320	69	2113.1158412341
6	79141	70	2111.1613431666
6	82166	71	2106.8160774671
6	85130	72	2102.339647443
6	88071	73	2097.6526627708
6	91264	74	2091.0742531046
6	94444	75	2086.1209481629
6	97648	76	2082.6798211997
6	101098	77	2080.5197256459
6	104538	78	2079.3552690716
6	107989	79	2078.806146726
6	111704	80	2078.5872148043
6	115386	81	2078.5070506316
6	119041	82	2078.4782376122
6	122992	83	2078.4678301709
6	126930	84	2078.4641181994
6	131003	85	2078.4627960678
6	135227	86	2078.4623240866
6	141279	87	2078.4621536219
6	145470	88	2078.4620918585
6	153129	89	2078.4620698206
6	157550	90	2078.4620623672
6	162625	91	2078.4620623672
6	167322	92	2078.4620623672
6	172003	93	2078.4620623672
6	176668	94	2078.4620623672
6	181609	95	2078.4620623672
6	186497	96	2078.4620623672
6	191352	97	2078.4620623672
6	196458	98	2078.4620623672
6	201534	99	2078.4620623672
6	206562	100	2078.4620623672
6	211839	101	2078.4620623672
6	217111	102	2078.4620623672
6	222347	103	2078.4620623672
6	227899	104	2078.4620623672
6	233471	105	2078.4620623672
6	239073	106	2078.4620623672
6	245057	107	2078.4620623672
6	251072	108	2078.4620623672
6	257126	109	2078.4620623672
6	263486	110	2078.4620623672
6	269821	111	2078.4620623672
6	276141	112	2078.4620623672
6	282793	113	2078.4620623672
6	289437	114	2078.4620623672
6	296042	115	2078.4620623672
6	302959	116	2078.4620623672
6	309832	117	2078.4620623672
6	316651	118	2078.4620623672
6	323772	119	2078.4620623672
6	330799	120	2078.4620623672
6	337741	121	2078.4620623672
6	344962	122	2078.4620623672
6	352141	123	2078.4620623672
6	359218	124	2078.2514831284
6	366622	125	2077.1972946841
6	373959	126	2075.0037653139
6	381213	127	2070.9101691684
6	388842	128	2067.4514232809
6	396379	129	2060.2880828883
6	403862	130	2051.6797594661
6	411681	131	2041.8317199564
6	419427	132	2031.6722311098
6	427070	133	2021.4952242402
6	435138	134	2011.3383542318
6	443122	135	2001.1815344077
6	451063	136	1991.0277976608
6	459347	137	1980.8694367334
6	467600	138	1971.1272283681
6	475770	139	1961.4031075193
6	484360	140	1951.6931545082
6	492884	141	1941.9885931304
6	501362	142	1932.2793140197
6	510249	143	1922.5621075649
6	519052	144	1912.8586996645
7	158	5	4.0332649588119
7	218	6	5.8265110515686
7	279	7	7.7852127750962
7	384	8	9.5658873894228
7	490	9	11.450149483434
7	596	10	13.391487500134
7	757	11	13.949883621705
7	918	12	13.87602620427
7	1081	13	13.885232782268
7	1303	14	13.987373048679
7	1526	15	13.890608048609
7	1750	16	13.887004709987
7	2046	17	13.926980708602
7	2342	18	13.89086526999
7	2638	19	13.965056618985
7	3018	20	13.946692067499
7	3400	21	13.097137451398
7	3782	22	11.939132677032
7	4258	23	7.4783001788439
7	4736	24	7.8592269216425
7	5215	25	9.5749213322898
7	5809	26	11.610942506126
7	6396	27	13.581243869506
7	6983	28	13.973211987913
7	7690	29	13.918392209036
7	8398	30	13.928662607018
7	9106	31	13.985277111761
7	9949	32	13.95532245066
7	10781	33	13.938708755139
7	11614	34	13.908545650935
7	12592	35	13.927478809105
7	13560	36	13.897819017794
7	14513	37	13.989504252097
7	15617	38	13.94374062394
7	16701	39	13.903882643976
7	17770	40	13.969130632835
7	18995	41	13.884234787642
7	20217	42	13.881978327318
7	21438	43	13.927070145076
7	22845	44	13.922745489741
7	24246	45	13.95273740395
7	25653	46	13.968270483359
7	27243	47	13.918685564972
7	28818	48	13.921468284922
7	30377	49	13.897015957548
7	32136	50	13.964752228069
7	33866	51	13.91147568828
7	35589	52	13.974545761354
7	37522	53	13.965476403411
7	39438	54	13.989670229855
7	41353	55	13.951804798429
7	43490	56	13.892850009208
7	45620	57	13.958218119799
7	47761	58	13.933717581006
7	50111	59	13.982012811573
7	52453	60	13.954506225567
7	54773	61	13.954468280503
7	57320	62	13.914126337939
7	59847	63	13.998578815588
7	62371	64	13.932968401979
7	65101	65	13.954534002345
7	67826	66	13.998651232829
7	70545	67	13.999179182528
7	73456	68	13.886099785112
7	76320	69	13.881868150404
7	79141	70	13.887636745651
7	82166	71	13.978686858166
7	85130	72	13.970344127666
7	88071	73	13.925369204739
7	91264	74	11.503028205973
7	94444	75	8.3084939661969
7	97648	76	5.5757626568646
7	101098	77	3.3211618849162
7	104538	78	1.6266335353547
7	107989	79	0.70715133051593
7	111704	80	0.26232084274652
7	115386	81	0.09568805664727
7	119041	82	0.033835632228035
7	122992	83	0.012538818862259
7	126930	84	0.0044949869302171
7	131003	85	0.0015515939487704
7	135227	86	0.00056220080715219
7	141279	87	0.00020206205078003
7	145470	88	7.4991505956587e-05
7	153129	89	2.6407687680597e-05
7	157550	90	0
7	162625	91	0
7	167322	92	0
7	172003	93	0
7	176668	94	0
7	181609	95	0
7	186497	96	0
7	191352	97	0
7	196458	98	0
7	201534	99	0
7	206562	100	0
7	211839	101	0
7	217111	102	0
7	222347	103	0
7	227899	104	0
7	233471	105	0
7	239073	106	0
7	245057	107	0
7	251072	108	0
7	257126	109	0
7	263486	110	0
7	269821	111	0
7	276141	112	0
7	282793	113	0
7	289437	114	0
7	296042	115	0
7	302959	116	0
7	309832	117	0
7	316651	118	0
7	323772	119	0
7	330799	120	0
7	337741	121	0
7	344962	122	0
7	352141	123	0
7	359218	124	1.0074459883879
7	366622	125	2.9889302256727
7	373959	126	4.8098560286978
7	381213	127	6.8175175217465
7	388842	128	8.7692460296107
7	396379	129	10.599613138129
7	403862	130	12.63114044604
7	411681	131	13.911355651631
7	419427	132	13.959096302334
7	427070	133	13.985669557508
7	435138	134	13.912786148109
7	443122	135	13.880683887878
7	451063	136	13.921652116431
7	459347	137	13.904044170342
7	467600	138	13.928399279253
7	475770	139	13.947232982973
7	484360	140	13.957098587838
7	492884	141	13.872669367229
7	501362	142	13.988834063003
7	510249	143	13.962365872057
7	519052	144	13.978590016267
8	218	6	1.7932460927567
8	279	7	1.9587017235276
8	384	8	1.7806746143266
8	490	9	1.8842620940111
8	596	10	1.9413380167005
8	757	11	0.5583961215709
8	918	12	-0.073857417434921
8	1081	13	0.0092065779981212
8	1303	14	0.10214026641101
8	1526	15	-0.096765000070445
8	1750	16	-0.0036033386224883
8	2046	17	0.039975998615846
8	2342	18	-0.036115438612178
8	2638	19	0.074191348995083
8	3018	20	-0.018364551486448
8	3400	21	-0.84955461610103
8	3782	22	-1.1580047743662
8	4258	23	-4.4608324981877
8	4736	24	0.38092674279862
8	5215	25	1.7156944106473
8	5809	26	2.0360211738362
8	6396	27	1.9703013633797
8	6983	28	0.39196811840698
8	7690	29	-0.054819778876846
8	8398	30	0.010270397982096
8	9106	31	0.056614504742901
8	9949	32	-0.029954661100637
8	10781	33	-0.016613695521373
8	11614	34	-0.030163104203529
8	12592	35	0.018933158169965
8	13560	36	-0.029659791311714
8	14513	37	0.091685234303586
8	15617	38	-0.045763628156855
8	16701	39	-0.039857979963999
8	17770	40	0.065247988859191
8	18995	41	-0.08489584519295
8	20217	42	-0.0022564603248618
8	21438	43	0.045091817758511
8	22845	44	-0.0043246553349299
8	24246	45	0.029991914208512
8	25653	46	0.015533079409506
8	27243	47	-0.0495849183877
8	28818	48	0.0027827199501917
8	30377	49	-0.024452327373437
8	32136	50	0.067736270520836
8	33866	51	-0.053276539789513
8	35589	52	0.063070073074195
8	37522	53	-0.0090693579427903
8	39438	54	0.024193826443517
8	41353	55	-0.037865431425162
8	43490	56	-0.058954789221753
8	45620	57	0.065368110591081
8	47761	58	-0.024500538792926
8	50111	59	0.048295230567454
8	52453	60	-0.027506586005911
8	54773	61	-3.7945064249811e-05
8	57320	62	-0.040341942564119
8	59847	63	0.08445247764932
8	62371	64	-0.065610413609539
8	65101	65	0.021565600365866
8	67826	66	0.044117230484263
8	70545	67	0.0005279496987356
8	73456	68	-0.11307939741528
8	76320	69	-0.0042316347081215
8	79141	70	0.0057685952470639
8	82166	71	0.091050112515221
8	85130	72	-0.0083427305007344
8	88071	73	-0.044974922926631
8	91264	74	-2.4223409987658
8	94444	75	-3.1945342397763
8	97648	76	-2.7327313093324
8	101098	77	-2.2546007719484
8	104538	78	-1.6945283495614
8	107989	79	-0.91948220483881
8	111704	80	-0.44483048776941
8	115386	81	-0.16663278609925
8	119041	82	-0.061852424419235
8	122992	83	-0.021296813365776
8	126930	84	-0.0080438319320418
8	131003	85	-0.0029433929814467
8	135227	86	-0.0009893931416182
8	141279	87	-0.00036013875637216
8	145470	88	-0.00012707054482344
8	153129	89	-4.8583818275989e-05
8	157550	90	-2.6407687680597e-05
8	162625	91	0
8	167322	92	0
8	172003	93	0
8	176668	94	0
8	181609	95	0
8	186497	96	0
8	191352	97	0
8	196458	98	0
8	201534	99	0
8	206562	100	0
8	211839	101	0
8	217111	102	0
8	222347	103	0
8	227899	104	0
8	233471	105	0
8	239073	106	0
8	245057	107	0
8	251072	108	0
8	257126	109	0
8	263486	110	0
8	269821	111	0
8	276141	112	0
8	282793	113	0
8	289437	114	0
8	296042	115	0
8	302959	116	0
8	309832	117	0
8	316651	118	0
8	323772	119	0
8	330799	120	0
8	337741	121	0
8	344962	122	0
8	352141	123	0
8	359218	124	1.0074459883879
8	366622	125	1.9814842372848
8	373959	126	1.8209258030251
8	381213	127	2.0076614930487
8	388842	128	1.9517285078642
8	396379	129	1.8303671085183
8	403862	130	2.0315273079113
8	411681	131	1.2802152055907
8	419427	132	0.047740650703199
8	427070	133	0.026573255173863
8	435138	134	-0.072883409399074
8	443122	135	-0.03210226023104
8	451063	136	0.040968228552956
8	459347	137	-0.017607946088537
8	467600	138	0.024355108910239
8	475770	139	0.018833703720011
8	484360	140	0.0098656048648991
8	492884	141	-0.084429220608435
8	501362	142	0.1161646957742
8	510249	143	-0.026468190946616
8	519052	144	0.016224144210573
9	218	6	3.9274001426868
9	279	7	5.2041356246368
9	384	8	5.7574507674447
9	490	9	7.0006276784153
9	596	10	8.2432295261252
9	757	11	3.9110016848773
9	918	12	1.7792042638201
9	1081	13	2.0579365757541
9	1303	14	2.3818636967155
9	1526	15	1.7037407999188
9	1750	16	2.0152488537881
9	2046	17	2.1655550639215
9	2342	18	1.906797412239
9	2638	19	2.2849654495652
9	3018	20	1.9716653983805
9	3400	21	0.973
9	3782	22	0.973
9	4258	23	0.973
9	4736	24	2.2554772362628
9	5215	25	5.6120472675651
9	5809	26	7.5119842129131
9	6396	27	8.4455276517466
9	6983	28	3.3560730035355
9	7690	29	1.8466200733259
9	8398	30	2.0660268329645
9	9106	31	2.2281549844786
9	9949	32	1.9335288120447
9	10781	33	1.9767670407741
9	11614	34	1.9283950769156
9	12592	35	2.0949799016024
9	13560	36	1.9290667558988
9	14513	37	2.3468857079218
9	15617	38	1.8793040227889
9	16701	39	1.8954681876561
9	17770	40	2.2553467174174
9	18995	41	1.7429567241042
9	20217	42	2.0192482635441
9	21438	43	2.1827359052182
9	22845	44	2.0164367628106
9	24246	45	2.1348602115454
9	25653	46	2.0878872407227
9	27243	47	1.8642059318509
9	28818	48	2.0401536442479
9	30377	49	1.9464315106901
9	32136	50	2.2632042711189
9	33866	51	1.851180617826
9	35589	52	2.2486511283506
9	37522	53	2.0047870143605
9	39438	54	2.1193583924862
9	41353	55	1.9065956504161
9	43490	56	1.8305118457369
9	45620	57	2.2544630998412
9	47761	58	1.9497933768092
9	50111	59	2.199742909699
9	52453	60	1.9416842431598
9	54773	61	2.0340583936544
9	57320	62	1.8947902862501
9	59847	63	2.3236156337703
9	62371	64	1.8116807487081
9	65101	65	2.1067187558746
9	67826	66	2.1875465210812
9	70545	67	2.0405446651404
9	73456	68	1.6487905152147
9	76320	69	2.0126291187762
9	79141	70	2.0466796925005
9	82166	71	2.3433989621326
9	85130	72	2.0077208397811
9	88071	73	1.8802787050508
9	91264	74	0.973
9	94444	75	0.973
9	97648	76	0.973
9	101098	77	0.973
9	104538	78	0.973
9	107989	79	0.973
9	111704	80	0.973
9	115386	81	0.973
9	119041	82	1.1111278658488
9	122992	83	1.1105405169147
9	126930	84	1.1102081243603
9	131003	85	1.1100737482573
9	135227	86	1.1100269865137
9	141279	87	1.1100097299357
9	145470	88	1.1100036152937
9	153129	89	1.1100012735977
9	157550	90	0.973
9	162625	91	0.973
9	167322	92	0.973
9	172003	93	0.973
9	176668	94	0.973
9	181609	95	0.973
9	186497	96	0.973
9	191352	97	0.973
9	196458	98	0.973
9	201534	99	0.973
9	206562	100	0.973
9	211839	101	0.973
9	217111	102	0.973
9	222347	103	0.973
9	227899	104	0.973
9	233471	105	0.973
9	239073	106	0.973
9	245057	107	0.973
9	251072	108	0.973
9	257126	109	0.973
9	263486	110	0.973
9	269821	111	0.973
9	276141	112	0.973
9	282793	113	0.973
9	289437	114	0.973
9	296042	115	0.973
9	302959	116	0.973
9	309832	117	0.973
9	316651	118	0.973
9	323772	119	0.973
9	330799	120	0.973
9	337741	121	0.973
9	344962	122	0.973
9	352141	123	0.973
9	359218	124	1.4032959804234
9	366622	125	2.6839795840135
9	373959	126	3.4630791015344
9	381213	127	4.7667804285314
9	388842	128	5.7200845072804
9	396379	129	6.407023179348
9	403862	130	8.089674348387
9	411681	131	6.3218833112619
9	419427	132	2.1952654366489
9	427070	133	2.1269451191026
9	435138	134	1.7855558300948
9	443122	135	1.9192758908256
9	451063	136	2.1682894028507
9	459347	137	1.9700401564216
9	467600	138	2.1132780923625
9	475770	139	2.0967521261933
9	484360	140	2.0676394119274
9	492884	141	1.7435781492056
9	501362	142	2.4293300508524
9	510249	143	1.945929812323
9	519052	144	2.0913101916029
10	279	7	2414.8848622198
10	384	8	2412.0691307599
10	490	9	2407.3819784434
10	596	10	2402.4639103656
10	757	11	2396.2016479742
10	918	12	2388.5021761758
10	1081	13	2379.5347220144
10	1303	14	2369.7521497252
10	1526	15	2359.9648396304
10	1750	16	2350.1637192596
10	2046	17	2340.717056727
10	2342	18	2334.4889366638
10	2638	19	2338.0188398167
10	3018	20	2348.6970945761
10	3400	21	2359.0578910074
10	3782	22	2372.1753142256
10	4258	23	2385.9847009928
10	4736	24	2399.0560799135
10	5215	25	2411.469456295
10	5809	26	2420.8240344936
10	6396	27	2428.2511095385
10	6983	28	2431.5096723901
10	7690	29	2433.2168502312
10	8398	30	2435.2011956087
10	9106	31	2437.29147981
10	9949	32	2438.672857787
10	10781	33	2439.5458305131
10	11614	34	2440.5569901068
10	12592	35	2441.5662171456
10	13560	36	2442.5764760413
10	14513	37	2443.5864360537
10	15617	38	2444.5969193554
10	16701	39	2445.6077267987
10	17770	40	2446.6171177449
10	18995	41	2447.6285385494
10	20217	42	2448.6389437378
10	21438	43	2449.6489775468
10	22845	44	2450.659299592
10	24246	45	2449.5461587089
10	25653	46	2448.4337074455
10	27243	47	2447.3207898499
10	28818	48	2446.207873206
10	30377	49	2445.0940501215
10	32136	50	2443.9833638043
10	33866	51	2442.8694501355
10	35589	52	2441.7571938549
10	37522	53	2440.6460889142
10	39438	54	2439.6827321647
10	41353	55	2438.7413750661
10	43490	56	2437.8192072627
10	45620	57	2432.6325302194
10	47761	58	2422.106233715
10	50111	59	2408.9688818519
10	52453	60	2395.0345910933
10	54773	61	2381.126587261
10	57320	62	2367.2179763186
10	59847	63	2353.2984252305
10	62371	64	2339.3434596916
10	65101	65	2325.3984135713
10	67826	66	2311.4586331139
10	70545	67	2297.5367558505
10	73456	68	2283.6070172336
10	76320	69	2269.6839314153
10	79141	70	2255.7643697551
10	82166	71	2241.8757564033
10	85130	72	2228.0688688542
10	88071	73	2214.3596332766
10	91264	74	2201.1714023183
10	94444	75	2187.9686336372
10	97648	76	2175.8734212776
10	101098	77	2166.9060475181
10	104538	78	2160.0570473718
10	107989	79	2155.1946690262
10	111704	80	2152.0845165758
10	115386	81	2150.3460835881
10	119041	82	2149.5044575131
10	122992	83	2149.1558657689
10	126930	84	2149.0223896184
10	131003	85	2148.9725696122
10	135227	86	2148.9540163553
10	141279	87	2148.9470391435
10	145470	88	2148.9444051881
10	153129	89	2148.9434134671
10	157550	90	2148.94304363
10	162625	91	2148.9429086937
10	167322	92	2148.9428601107
10	172003	93	2148.9428425793
10	176668	94	2148.9428407104
10	181609	95	2148.9428407104
10	186497	96	2148.9428407104
10	191352	97	2148.9428407104
10	196458	98	2148.9428407104
10	201534	99	2148.9428407104
10	206562	100	2148.9428407104
10	211839	101	2148.9428407104
10	217111	102	2148.9428407104
10	222347	103	2148.9428407104
10	227899	104	2148.9428407104
10	233471	105	2148.9428407104
10	239073	106	2148.9428407104
10	245057	107	2148.9428407104
10	251072	108	2148.9428407104
10	257126	109	2148.9428407104
10	263486	110	2148.9428407104
10	269821	111	2148.9428407104
10	276141	112	2148.9428407104
10	282793	113	2148.9428407104
10	289437	114	2148.9428407104
10	296042	115	2148.9428407104
10	302959	116	2148.9428407104
10	309832	117	2148.9428407104
10	316651	118	2148.9428407104
10	323772	119	2148.9428407104
10	330799	120	2148.9428407104
10	337741	121	2148.9428407104
10	344962	122	2148.9428407104
10	352141	123	2148.9428407104
10	359218	124	2148.8702690681
10	366622	125	2148.0086281676
10	373959	126	2145.7118229447
10	381213	127	2141.8120576798
10	388842	128	2136.7254955326
10	396379	129	2131.117327133
10	403862	130	2124.0657879765
10	411681	131	2115.6133790046
10	419427	132	2106.1561989734
10	427070	133	2096.6378862071
10	435138	134	2087.1217902419
10	443122	135	2077.6044014551
10	451063	136	2068.0710886348
10	459347	137	2058.5401411533
10	467600	138	2049.0209457527
10	475770	139	2039.0665878284
10	484360	140	2029.0627509638
10	492884	141	2019.068488598
10	501362	142	2009.0755044145
10	510249	143	1999.082110878
10	519052	144	1989.0864711792
11	279	7	1578.4476927174
11	384	8	1579.4816146148
11	490	9	1581.3305685576
11	596	10	1586.311893981
11	757	11	1592.6547030602
11	918	12	1600.4532072712
11	1081	13	1609.5360029312
11	1303	14	1619.4444009606
11	1526	15	1629.3575977338
11	1750	16	1639.2847824143
11	2046	17	1649.4765304932
11	2342	18	1661.4854336744
11	2638	19	1673.8446300924
11	3018	20	1682.7957309801
11	3400	21	1692.1393567109
11	3782	22	1695.6439150097
11	4258	23	1697.4374776948
11	4736	24	1698.6863156371
11	5215	25	1699.860083269
11	5809	26	1700.7446211064
11	6396	27	1701.4003788568
11	6983	28	1709.757081449
11	7690	29	1720.9911797
11	8398	30	1734.0491812732
11	9106	31	1747.8043141738
11	9949	32	1761.6824669717
11	10781	33	1775.5982529195
11	11614	34	1789.5036912933
11	12592	35	1803.3825532272
11	13560	36	1817.2756052278
11	14513	37	1831.1645469936
11	15617	38	1845.0606850199
11	16701	39	1858.9612806309
11	17770	40	1872.8423966132
11	18995	41	1886.7514271513
11	20217	42	1900.646490965
11	21438	43	1914.536447579
11	22845	44	1928.4487420022
11	24246	45	1942.3421864314
11	25653	46	1956.2270235084
11	27243	47	1970.117681019
11	28818	48	1984.0083266487
11	30377	49	1997.9102858361
11	32136	50	2011.7730940934
11	33866	51	2025.6761838896
11	35589	52	2039.5585873295
11	37522	53	2053.4266205495
11	39438	54	2067.3249077424
11	41353	55	2081.2332002614
11	43490	56	2095.1082015075
11	45620	57	2107.8060795395
11	47761	58	2116.5990612879
11	50111	59	2120.9591539605
11	52453	60	2120.4885113519
11	54773	61	2120.0187566066
11	57320	62	2119.5489813555
11	59847	63	2119.0788365919
11	62371	64	2118.6074956749
11	65101	65	2118.1364897946
11	67826	66	2117.6656617671
11	70545	67	2117.1954384353
11	73456	68	2116.7249495788
11	76320	69	2116.2546854271
11	79141	70	2115.7845403058
11	82166	71	2114.7251280239
11	85130	72	2112.7672046544
11	88071	73	2110.4934893819
11	91264	74	2106.020655496
11	94444	75	2101.5428910907
11	97648	76	2096.8527193153
11	101098	77	2091.5737679731
11	104538	78	2087.5418697288
11	107989	79	2084.6794643719
11	111704	80	2082.8485667314
11	115386	81	2081.8251786809
11	119041	82	2081.3297266997
11	122992	83	2081.1245162431
11	126930	84	2081.0459409412
11	131003	85	2081.0166126899
11	135227	86	2081.0056906808
11	141279	87	2081.0015833061
11	145470	88	2081.0000327388
11	153129	89	2080.9994489281
11	157550	90	2080.9992312109
11	162625	91	2080.9991517756
11	167322	92	2080.9991231756
11	172003	93	2080.9991128556
11	176668	94	2080.9991117548
11	181609	95	2080.9991117548
11	186497	96	2080.9991117548
11	191352	97	2080.9991117548
11	196458	98	2080.9991117548
11	201534	99	2080.9991117548
11	206562	100	2080.9991117548
11	211839	101	2080.9991117548
11	217111	102	2080.9991117548
11	222347	103	2080.9991117548
11	227899	104	2080.9991117548
11	233471	105	2080.9991117548
11	239073	106	2080.9991117548
11	245057	107	2080.9991117548
11	251072	108	2080.9991117548
11	257126	109	2080.9991117548
11	263486	110	2080.9991117548
11	269821	111	2080.9991117548
11	276141	112	2080.9991117548
11	282793	113	2080.9991117548
11	289437	114	2080.9991117548
11	296042	115	2080.9991117548
11	302959	116	2080.9991117548
11	309832	117	2080.9991117548
11	316651	118	2080.9991117548
11	323772	119	2080.9991117548
11	330799	120	2080.9991117548
11	337741	121	2080.9991117548
11	344962	122	2080.9991117548
11	352141	123	2080.9991117548
11	359218	124	2080.9563899748
11	366622	125	2080.4491555821
11	373959	126	2079.0970626129
11	381213	127	2076.801332376
11	388842	128	2072.84984056
11	396379	129	2066.8631145256
11	403862	130	2059.3355885958
11	411681	131	2050.3126325719
11	419427	132	2040.2170823198
11	427070	133	2030.0562728047
11	435138	134	2019.8978297273
11	443122	135	2009.7380065611
11	451063	136	1999.5611844705
11	459347	137	1989.3868873827
11	467600	138	1979.2251356542
11	475770	139	1969.4577927347
11	484360	140	1959.7330737021
11	492884	141	1950.0176620306
11	501362	142	1940.3034928776
11	510249	143	1930.5889257938
11	519052	144	1920.8721752176
12	384	8	3.930963162637
12	490	9	5.9263112237273
12	596	10	7.8381960794392
12	757	11	9.790430662247
12	918	12	11.728100012452
12	1081	13	13.629514704516
12	1303	14	13.941568216505
12	1526	15	13.881279769889
12	1750	16	13.897868440901
12	2046	17	13.925429278756
12	2342	18	13.988464023101
12	2638	19	13.968606978769
12	3018	20	13.918509052745
12	3400	21	13.924308654484
12	3782	22	13.951645852409
12	4258	23	13.87926841794
12	4736	24	12.793519969494
12	5215	25	11.84351296104
12	5809	26	7.4038563960913
12	6396	27	8.4727548549238
12	6983	28	10.367830629347
12	7690	29	12.18869854925
12	8398	30	13.961659159465
12	9106	31	13.954832898835
12	9949	32	13.985199820679
12	10781	33	13.894128147855
12	11614	34	13.93747920732
12	12592	35	13.922516686122
12	13560	36	13.936551663636
12	14513	37	13.899921349036
12	15617	38	13.905686459227
12	16701	39	13.974518650502
12	17770	40	13.926188751743
12	18995	41	13.91506882193
12	20217	42	13.902084701743
12	21438	43	13.906688486487
12	22845	44	13.974945872892
12	24246	45	13.897515056985
12	25653	46	13.921723058985
12	27243	47	13.971591069859
12	28818	48	13.925448836959
12	30377	49	13.871581884674
12	32136	50	13.876423048137
12	33866	51	13.873938687814
12	35589	52	13.902598275633
12	37522	53	13.87539361449
12	39438	54	13.977128260287
12	41353	55	13.895400740923
12	43490	56	13.950985880545
12	45620	57	13.943263569523
12	47761	58	13.891897078918
12	50111	59	13.874182712052
12	52453	60	13.982985400616
12	54773	61	13.927164004399
12	57320	62	13.899862960158
12	59847	63	13.960168966714
12	62371	64	13.961850514959
12	65101	65	13.962242161995
12	67826	66	13.957377178506
12	70545	67	13.932528918332
12	73456	68	13.977439161665
12	76320	69	13.873707558191
12	79141	70	13.945779315263
12	82166	71	13.942668949808
12	85130	72	13.91575948562
12	88071	73	13.907857767178
12	91264	74	13.900433905981
12	94444	75	13.923825558184
12	97648	76	11.814122621662
12	101098	77	9.337223026894
12	104538	78	6.8732055613698
12	107989	79	4.7416921212429
12	111704	80	2.7530894052557
12	115386	81	1.4852991123435
12	119041	82	0.657674669026
12	122992	83	0.25043175996506
12	126930	84	0.09578595091226
12	131003	85	0.036137165618741
12	135227	86	0.013689494588939
12	141279	87	0.0049958050014477
12	145470	88	0.001908269765569
12	153129	89	0.00070881405600536
12	157550	90	0.00026931418691187
12	162625	91	9.2653737675703e-05
12	167322	92	3.494056348768e-05
12	172003	93	1.2306695655274e-05
12	176668	94	0
12	181609	95	0
12	186497	96	0
12	191352	97	0
12	196458	98	0
12	201534	99	0
12	206562	100	0
12	211839	101	0
12	217111	102	0
12	222347	103	0
12	227899	104	0
12	233471	105	0
12	239073	106	0
12	245057	107	0
12	251072	108	0
12	257126	109	0
12	263486	110	0
12	269821	111	0
12	276141	112	0
12	282793	113	0
12	289437	114	0
12	296042	115	0
12	302959	116	0
12	309832	117	0
12	316651	118	0
12	323772	119	0
12	330799	120	0
12	337741	121	0
12	344962	122	0
12	352141	123	0
12	359218	124	0.30111498428967
12	366622	125	1.7020063699808
12	373959	126	3.4239688721938
12	381213	127	5.4398441553122
12	388842	128	7.2489749264613
12	396379	129	9.1609679345519
12	403862	130	11.303337095712
12	411681	131	13.15055484119
12	419427	132	13.994902517959
12	427070	133	13.870053731997
12	435138	134	13.976907482436
12	443122	135	13.950773314217
12	451063	136	13.891843429431
12	459347	137	13.967132261463
12	467600	138	13.892249986657
12	475770	139	13.988407572433
12	484360	140	13.973843518435
12	492884	141	13.96924612178
12	501362	142	13.935826506824
12	510249	143	13.894819367053
12	519052	144	13.898519513796
13	490	9	1.9953480610903
13	596	10	1.9118848557118
13	757	11	1.9522345828079
13	918	12	1.9376693502045
13	1081	13	1.9014146920643
13	1303	14	0.31205351198868
13	1526	15	-0.060288446615449
13	1750	16	0.016588671011849
13	2046	17	0.027560837855562
13	2342	18	0.063034744344186
13	2638	19	-0.019857044331729
13	3018	20	-0.050097926023881
13	3400	21	0.0057996017392714
13	3782	22	0.027337197924499
13	4258	23	-0.072377434468363
13	4736	24	-1.0857484484466
13	5215	25	-0.95000700845353
13	5809	26	-4.439656564949
13	6396	27	1.0688984588324
13	6983	28	1.8950757744233
13	7690	29	1.8208679199032
13	8398	30	1.7729606102145
13	9106	31	-0.0068262606300422
13	9949	32	0.03036692184396
13	10781	33	-0.091071672823745
13	11614	34	0.043351059465204
13	12592	35	-0.01496252119774
13	13560	36	0.014034977513365
13	14513	37	-0.036630314600188
13	15617	38	0.0057651101914225
13	16701	39	0.068832191275433
13	17770	40	-0.048329898759256
13	18995	41	-0.01111992981285
13	20217	42	-0.012984120186884
13	21438	43	0.0046037847432316
13	22845	44	0.068257386405021
13	24246	45	-0.077430815906265
13	25653	46	0.02420800199965
13	27243	47	0.049868010873906
13	28818	48	-0.046142232900019
13	30377	49	-0.053866952285171
13	32136	50	0.0048411634634249
13	33866	51	-0.0024843603232867
13	35589	52	0.028659587819128
13	37522	53	-0.027204661143477
13	39438	54	0.10173464579741
13	41353	55	-0.08172751936363
13	43490	56	0.05558513962198
13	45620	57	-0.007722311022226
13	47761	58	-0.051366490605288
13	50111	59	-0.017714366866276
13	52453	60	0.10880268856417
13	54773	61	-0.055821396217215
13	57320	62	-0.027301044240593
13	59847	63	0.06030600655591
13	62371	64	0.0016815482452515
13	65101	65	0.00039164703572148
13	67826	66	-0.0048649834888046
13	70545	67	-0.024848260174041
13	73456	68	0.044910243332852
13	76320	69	-0.10373160347343
13	79141	70	0.072071757072118
13	82166	71	-0.0031103654555054
13	85130	72	-0.02690946418792
13	88071	73	-0.0079017184418628
13	91264	74	-0.0074238611967292
13	94444	75	0.023391652202699
13	97648	76	-2.1097029365225
13	101098	77	-2.4768995947677
13	104538	78	-2.4640174655242
13	107989	79	-2.1315134401269
13	111704	80	-1.9886027159872
13	115386	81	-1.2677902929122
13	119041	82	-0.8276244433175
13	122992	83	-0.40724290906094
13	126930	84	-0.1546458090528
13	131003	85	-0.059648785293519
13	135227	86	-0.022447671029802
13	141279	87	-0.0086936895874911
13	145470	88	-0.0030875352358788
13	153129	89	-0.0011994557095636
13	157550	90	-0.00043949986909348
13	162625	91	-0.00017666044923617
13	167322	92	-5.7713174188023e-05
13	172003	93	-2.2633867832406e-05
13	176668	94	-1.2306695655274e-05
13	181609	95	0
13	186497	96	0
13	191352	97	0
13	196458	98	0
13	201534	99	0
13	206562	100	0
13	211839	101	0
13	217111	102	0
13	222347	103	0
13	227899	104	0
13	233471	105	0
13	239073	106	0
13	245057	107	0
13	251072	108	0
13	257126	109	0
13	263486	110	0
13	269821	111	0
13	276141	112	0
13	282793	113	0
13	289437	114	0
13	296042	115	0
13	302959	116	0
13	309832	117	0
13	316651	118	0
13	323772	119	0
13	330799	120	0
13	337741	121	0
13	344962	122	0
13	352141	123	0
13	359218	124	0.30111498428967
13	366622	125	1.4008913856911
13	373959	126	1.721962502213
13	381213	127	2.0158752831185
13	388842	128	1.809130771149
13	396379	129	1.9119930080906
13	403862	130	2.1423691611597
13	411681	131	1.8472177454783
13	419427	132	0.84434767676863
13	427070	133	-0.12484878596151
13	435138	134	0.10685375043889
13	443122	135	-0.026134168219286
13	451063	136	-0.058929884785321
13	459347	137	0.075288832031656
13	467600	138	-0.074882274805567
13	475770	139	0.096157585775945
13	484360	140	-0.014564053998329
13	492884	141	-0.0045973966550079
13	501362	142	-0.033419614955783
13	510249	143	-0.041007139771246
13	519052	144	0.0037001467426307
14	490	9	4.2649508166984
14	596	10	5.1441608835298
14	757	11	6.2752675611406
14	918	12	7.3015557220543
14	1081	13	8.2469806235914
14	1303	14	3.0813423760871
14	1526	15	1.825038103975
14	1750	16	2.0839753981971
14	2046	17	2.1237162576214
14	2342	18	2.2501690272635
14	2638	19	1.9687844028223
14	3018	20	1.8624692368163
14	3400	21	2.0505690853877
14	3782	22	2.1258147014109
14	4258	23	1.7844264067381
14	4736	24	0.973
14	5215	25	0.973
14	5809	26	0.973
14	6396	27	3.7575341079103
14	6983	28	6.4482222684255
14	7690	29	7.2140195323343
14	8398	30	8.0005078452345
14	9106	31	2.0112657729674
14	9949	32	2.1396802881933
14	10781	33	1.7230808185304
14	11614	34	2.1780640158967
14	12592	35	1.980720158986
14	13560	36	2.0794954629949
14	14513	37	1.9059152732614
14	15617	38	2.0485298427513
14	16701	39	2.2680539427787
14	17770	40	1.8690933945628
14	18995	41	1.9928741031296
14	20217	42	1.9853406570184
14	21438	43	2.0447410785649
14	22845	44	2.2661688405632
14	24246	45	1.7690384486571
14	25653	46	2.1120645090544
14	27243	47	2.2038504354464
14	28818	48	1.8763684319447
14	30377	49	1.8456610488087
14	32136	50	2.0424227277346
14	33866	51	2.0176736696174
14	35589	52	2.1249196677245
14	37522	53	1.9351566644326
14	39438	54	2.3791959019776
14	41353	55	1.7544739900146
14	43490	56	2.2207177955444
14	45620	57	2.007091813677
14	47761	58	1.8558336695686
14	50111	59	1.9667740746073
14	52453	60	2.4037578966905
14	54773	61	1.844036691971
14	57320	62	1.9371616602798
14	59847	63	2.2376623461065
14	62371	64	2.0405988072341
14	65101	65	2.0362986285583
14	67826	66	2.0181188628954
14	70545	67	1.9485115452067
14	73456	68	2.1878187851485
14	76320	69	1.6791237400594
14	79141	70	2.2755265645048
14	82166	71	2.0225291815531
14	85130	72	1.9399893034582
14	88071	73	2.0029455902709
14	91264	74	2.0038046724737
14	94444	75	2.1095517709643
14	97648	76	0.973
14	101098	77	0.973
14	104538	78	0.973
14	107989	79	0.973
14	111704	80	0.973
14	115386	81	0.973
14	119041	82	0.973
14	122992	83	0.973
14	126930	84	0.973
14	131003	85	1.111223776563
14	135227	86	1.1105863228136
14	141279	87	1.1102305305381
14	145470	88	1.1100906349982
14	153129	89	1.110033988294
14	157550	90	1.1100129631908
14	162625	91	1.1100044656716
14	167322	92	1.1100016850468
14	172003	93	1.1100005936079
14	176668	94	0.973
14	181609	95	0.973
14	186497	96	0.973
14	191352	97	0.973
14	196458	98	0.973
14	201534	99	0.973
14	206562	100	0.973
14	211839	101	0.973
14	217111	102	0.973
14	222347	103	0.973
14	227899	104	0.973
14	233471	105	0.973
14	239073	106	0.973
14	245057	107	0.973
14	251072	108	0.973
14	257126	109	0.973
14	263486	110	0.973
14	269821	111	0.973
14	276141	112	0.973
14	282793	113	0.973
14	289437	114	0.973
14	296042	115	0.973
14	302959	116	0.973
14	309832	117	0.973
14	316651	118	0.973
14	323772	119	0.973
14	330799	120	0.973
14	337741	121	0.973
14	344962	122	0.973
14	352141	123	0.973
14	359218	124	1.1463798353227
14	366622	125	1.7671828345398
14	373959	126	2.6998034371745
14	381213	127	4.0301062222304
14	388842	128	4.6554359980014
14	396379	129	5.8442330280771
14	403862	130	7.6247212326268
14	411681	131	7.8088296658273
14	419427	132	4.8861167420398
14	427070	133	1.6082559213645
14	435138	134	2.3964112552926
14	443122	135	1.9459417714189
14	451063	136	1.8305071297824
14	459347	137	2.2889091066774
14	467600	138	1.7771335963684
14	475770	139	2.3618263144753
14	484360	140	1.9871204120904
14	492884	141	2.0202196915241
14	501362	142	1.9200411260635
14	510249	143	1.890784646253
14	519052	144	2.0408735930085
15	596	10	2414.8652957816
15	757	11	2411.9402292009
15	918	12	2407.1594214574
15	1081	13	2402.0350675649
15	1303	14	2395.5354035812
15	1526	15	2387.5598131203
15	1750	16	2378.2983909701
15	2046	17	2368.4972038758
15	2342	18	2358.719633554
15	2638	19	2348.9248444787
15	3018	20	2339.614370346
15	3400	21	2334.1997176057
15	3782	22	2339.4193692133
15	4258	23	2350.023330241
15	4736	24	2360.3662725991
15	5215	25	2373.90233667
15	5809	26	2387.7152259793
15	6396	27	2400.5914429313
15	6983	28	2412.9398871803
15	7690	29	2421.7139854309
15	8398	30	2429.0882121673
15	9106	31	2431.6639768599
15	9949	32	2433.4302155024
15	10781	33	2435.4611475593
15	11614	34	2437.5533698815
15	12592	35	2438.7684759141
15	13560	36	2439.671540139
15	14513	37	2440.6813741141
15	15617	38	2441.6917844916
15	16701	39	2442.7022041357
15	17770	40	2443.7124593587
15	18995	41	2444.7229332504
15	20217	42	2445.7337078364
15	21438	43	2446.7459111849
15	22845	44	2447.757486716
15	24246	45	2448.7683903823
15	25653	46	2449.7777371067
15	27243	47	2450.5176811377
15	28818	48	2449.4057673637
15	30377	49	2448.2921364765
15	32136	50	2447.1808208324
15	33866	51	2446.0691226661
15	35589	52	2444.9566500478
15	37522	53	2443.8447802094
15	39438	54	2442.7322517141
15	41353	55	2441.6188783727
15	43490	56	2440.5052318306
15	45620	57	2439.5638147272
15	47761	58	2438.6536858481
15	50111	59	2437.4948448264
15	52453	60	2431.5334230323
15	54773	61	2420.4715117268
15	57320	62	2407.1766999349
15	59847	63	2393.2654671065
15	62371	64	2379.3340416566
15	65101	65	2365.4130733985
15	67826	66	2351.4761689551
15	70545	67	2337.5268439178
15	73456	68	2323.6086323152
15	76320	69	2309.6673963735
15	79141	70	2295.7412469359
15	82166	71	2281.8125583379
15	85130	72	2267.8962458479
15	88071	73	2253.9590490381
15	91264	74	2240.1072131846
15	94444	75	2226.3237636529
15	97648	76	2212.6768161277
15	101098	77	2199.4867584505
15	104538	78	2186.5727009254
15	107989	79	2175.9405364584
15	111704	80	2168.1032066894
15	115386	81	2162.2482135491
15	119041	82	2158.1847134057
15	122992	83	2155.6704383467
15	126930	84	2154.307724961
15	131003	85	2153.6793911499
15	135227	86	2153.4185795318
15	141279	87	2153.316249857
15	145470	88	2153.2769491689
15	153129	89	2153.26180298
15	157550	90	2153.2560518935
15	162625	91	2153.2538638124
15	167322	92	2153.253031502
15	172003	93	2153.2527150327
15	176668	94	2153.2525948292
15	181609	95	2153.2525515057
15	186497	96	2153.2525362127
15	191352	97	2153.2525362127
15	196458	98	2153.2525362127
15	201534	99	2153.2525362127
15	206562	100	2153.2525362127
15	211839	101	2153.2525362127
15	217111	102	2153.2525362127
15	222347	103	2153.2525362127
15	227899	104	2153.2525362127
15	233471	105	2153.2525362127
15	239073	106	2153.2525362127
15	245057	107	2153.2525362127
15	251072	108	2153.2525362127
15	257126	109	2153.2525362127
15	263486	110	2153.2525362127
15	269821	111	2153.2525362127
15	276141	112	2153.2525362127
15	282793	113	2153.2525362127
15	289437	114	2153.2525362127
15	296042	115	2153.2525362127
15	302959	116	2153.2525362127
15	309832	117	2153.2525362127
15	316651	118	2153.2525362127
15	323772	119	2153.2525362127
15	330799	120	2153.2525362127
15	337741	121	2153.2525362127
15	344962	122	2153.2525362127
15	352141	123	2153.2525362127
15	359218	124	2153.2434618433
15	366622	125	2152.9409655298
15	373959	126	2151.6247265029
15	381213	127	2148.900881986
15	388842	128	2144.5736485545
15	396379	129	2138.7593135859
15	403862	130	2132.6159495031
15	411681	131	2122.904723209
15	419427	132	2114.2870903601
15	427070	133	2104.7789280035
15	435138	134	2095.2659121457
15	443122	135	2085.754672986
15	451063	136	2076.2257573606
15	459347	137	2066.7007029515
15	467600	138	2057.1762459595
15	475770	139	2047.6429362881
15	484360	140	2037.7505721828
15	492884	141	2027.7586513263
15	501362	142	2017.7614090502
15	510249	143	2007.7579882918
15	519052	144	1997.7538090885
16	596	10	1578.4548774119
16	757	11	1579.5289465943
16	918	12	1581.5559881236
16	1081	13	1586.7462526578
16	1303	14	1593.3295168448
16	1526	15	1601.4076912217
16	1750	16	1610.7882359559
16	2046	17	1620.7154882178
16	2342	18	1630.6188199436
16	2638	19	1640.5395918936
16	3018	20	1650.8881406859
16	3400	21	1663.2272230769
16	3782	22	1674.9756418047
16	4258	23	1683.991763521
16	4736	24	1693.3192880014
16	5215	25	1695.9020503219
16	5809	26	1697.6139621651
16	6396	27	1698.8314944636
16	6983	28	1699.9991223291
16	7690	29	1700.8287719106
16	8398	30	1701.8119543158
16	9106	31	1710.77248332
16	9949	32	1722.3952316754
16	10781	33	1735.7597972872
16	11614	34	1749.5276840087
16	12592	35	1763.4065813264
16	13560	36	1777.3270081691
16	14513	37	1791.2142166747
16	15617	38	1805.1093518483
16	16701	39	1819.0046144547
16	17770	40	1832.8976159496
16	18995	41	1846.7936245678
16	20217	42	1860.6937683271
16	21438	43	1874.6135603888
16	22845	44	1888.5247187214
16	24246	45	1902.4266375881
16	25653	46	1916.3071454344
16	27243	47	1930.2163243052
16	28818	48	1944.0944528161
16	30377	49	1957.9940131316
16	32136	50	1971.8646762054
16	33866	51	1985.7401136523
16	35589	52	1999.6252172682
16	37522	53	2013.5027974071
16	39438	54	2027.3885984384
16	41353	55	2041.2849442475
16	43490	56	2055.1846999563
16	45620	57	2069.0818802128
16	47761	58	2082.9846842764
16	50111	59	2096.8273224197
16	52453	60	2109.1980060218
16	54773	61	2117.3297997853
16	57320	62	2120.89862148
16	59847	63	2120.4287576731
16	62371	64	2119.9582118429
16	65101	65	2119.4880192131
16	67826	66	2119.0172883254
16	70545	67	2118.5461379206
16	73456	68	2118.0760383997
16	76320	69	2117.6051612115
16	79141	70	2117.1347935833
16	82166	71	2116.6643401925
16	85130	72	2116.1943048155
16	88071	73	2115.723564052
16	91264	74	2114.4743349263
16	94444	75	2112.5197352488
16	97648	76	2109.9227561578
16	101098	77	2105.4493027339
16	104538	78	2101.0694557112
16	107989	79	2096.8922289629
16	111704	80	2092.2785166753
16	115386	81	2088.8317746604
16	119041	82	2086.4396562865
16	122992	83	2084.9595422586
16	126930	84	2084.157334405
16	131003	85	2083.7874442115
16	135227	86	2083.6339085298
16	141279	87	2083.5736686662
16	145470	88	2083.5505329715
16	153129	89	2083.5416166494
16	157550	90	2083.5382310757
16	162625	91	2083.5369429868
16	167322	92	2083.5364530189
16	172003	93	2083.5362667181
16	176668	94	2083.5361959562
16	181609	95	2083.5361704519
16	186497	96	2083.5361614497
16	191352	97	2083.5361614497
16	196458	98	2083.5361614497
16	201534	99	2083.5361614497
16	206562	100	2083.5361614497
16	211839	101	2083.5361614497
16	217111	102	2083.5361614497
16	222347	103	2083.5361614497
16	227899	104	2083.5361614497
16	233471	105	2083.5361614497
16	239073	106	2083.5361614497
16	245057	107	2083.5361614497
16	251072	108	2083.5361614497
16	257126	109	2083.5361614497
16	263486	110	2083.5361614497
16	269821	111	2083.5361614497
16	276141	112	2083.5361614497
16	282793	113	2083.5361614497
16	289437	114	2083.5361614497
16	296042	115	2083.5361614497
16	302959	116	2083.5361614497
16	309832	117	2083.5361614497
16	316651	118	2083.5361614497
16	323772	119	2083.5361614497
16	330799	120	2083.5361614497
16	337741	121	2083.5361614497
16	344962	122	2083.5361614497
16	352141	123	2083.5361614497
16	359218	124	2083.530819512
16	366622	125	2083.3527447078
16	373959	126	2082.5778955761
16	381213	127	2080.9744113162
16	388842	128	2078.4270373201
16	396379	129	2074.6956459237
16	403862	130	2068.4628955806
16	411681	131	2062.9201957276
16	419427	132	2053.72182611
16	427070	133	2043.5729147708
16	435138	134	2033.4188228557
16	443122	135	2023.2666273685
16	451063	136	2013.0955642108
16	459347	137	2002.928622474
16	467600	138	1992.7623184137
16	475770	139	1982.5865650978
16	484360	140	1972.7814738676
16	492884	141	1963.0686164517
16	501362	142	1953.3505862374
16	510249	143	1943.6265500989
16	519052	144	1933.9017766984
17	757	11	4.0076977833542
17	918	12	6.1677344774264
17	1081	13	8.1549676716625
17	1303	14	10.178332106699
17	1526	15	12.262859039094
17	1750	16	13.909239285488
17	2046	17	13.972104677679
17	2342	18	13.964405047395
17	2638	19	13.904001857305
17	3018	20	13.959390929798
17	3400	21	13.878038117993
17	3782	22	13.946876353603
17	4258	23	13.944667257406
17	4736	24	13.919344021892
17	5215	25	13.927560248445
17	5809	26	13.871213583788
17	6396	27	12.691334807668
17	6983	28	11.253789109264
17	7690	29	6.8021452137647
17	8398	30	8.5806848426844
17	9106	31	10.511503565412
17	9949	32	12.634297992723
17	10781	33	13.965718502484
17	11614	34	13.984844662666
17	12592	35	13.956789441942
17	13560	36	13.956542154332
17	14513	37	13.917345386401
17	15617	38	13.978046209081
17	16701	39	13.982312166321
17	17770	40	13.915473192113
17	18995	41	13.879970237834
17	20217	42	13.897895857247
17	21438	43	13.999869057706
17	22845	44	13.978634591533
17	24246	45	13.942230677728
17	25653	46	13.955766034983
17	27243	47	13.950300372976
17	28818	48	13.917481608128
17	30377	49	13.942320762996
17	32136	50	13.893100212866
17	33866	51	13.91633811252
17	35589	52	13.928179549885
17	37522	53	13.968941585214
17	39438	54	13.972987024514
17	41353	55	13.957628285089
17	43490	56	13.894821882746
17	45620	57	13.9606701646
17	47761	58	13.982247338414
17	50111	59	13.974088552413
17	52453	60	13.92781890474
17	54773	61	13.871840020602
17	57320	62	13.950818891171
17	59847	63	13.896373478309
17	62371	64	13.98123223257
17	65101	65	13.934642261642
17	67826	66	13.925234322341
17	70545	67	13.991972472956
17	73456	68	13.975208927125
17	76320	69	13.946616810667
17	79141	70	13.894927249895
17	82166	71	13.997537077854
17	85130	72	13.937148143742
17	88071	73	13.949254455173
17	91264	74	13.997392567724
17	94444	75	13.892845066143
17	97648	76	13.886739599619
17	101098	77	13.915855845532
17	104538	78	12.828711824371
17	107989	79	10.389000575063
17	111704	80	8.097997909287
17	115386	81	5.794628169674
17	119041	82	3.825260619805
17	122992	83	2.2231521751121
17	126930	84	1.1355791697037
17	131003	85	0.47706516133759
17	135227	86	0.18767643011928
17	141279	87	0.073876938451471
17	145470	88	0.028253411624232
17	153129	89	0.010732307537218
17	157550	90	0.0042217414547519
17	162625	91	0.001614660110939
17	167322	92	0.00060710605756077
17	172003	93	0.0002279297091301
17	176668	94	8.6595030408705e-05
17	181609	95	3.0367047783418e-05
17	186497	96	1.0757540829982e-05
17	191352	97	0
17	196458	98	0
[...]
194	403862	130	2.0522988817379
194	411681	131	2.0358974132154
194	419427	132	1.8701681934173
194	427070	133	0.973
194	435138	134	2.1865316146946
194	443122	135	0.973
194	451063	136	3.6774745356056
194	459347	137	6.9879091594823
194	467600	138	7.6867581136571
194	475770	139	7.3980948870176
194	484360	140	1.9190385496854
194	492884	141	2.0105017993591
194	501362	142	1.8420875589668
194	510249	143	2.1187580935198
194	519052	144	2.0329502945714
195	316651	118	2414.8450846585
195	323772	119	2411.8475219843
195	330799	120	2407.2438594305
195	337741	121	2402.4308415214
195	344962	122	2396.1834139706
195	352141	123	2388.5315582285
195	359218	124	2380.3590962086
195	366622	125	2372.1931596652
195	373959	126	2364.0175617313
195	381213	127	2355.8640912877
195	388842	128	2347.721792558
195	396379	129	2339.9932143375
195	403862	130	2334.6761091601
195	411681	131	2335.4628156379
195	419427	132	2344.3456628481
195	427070	133	2353.0106859601
195	435138	134	2361.8100893748
195	443122	135	2373.3300692714
195	451063	136	2384.8479171596
195	459347	137	2396.4038581185
195	467600	138	2407.9737689786
195	475770	139	2418.4367850694
195	484360	140	2425.4127052278
195	492884	141	2430.8950871383
195	501362	142	2432.4475202787
195	510249	143	2434.3045498399
195	519052	144	2436.3900285007
196	316651	118	1578.462298831
196	323772	119	1579.5629882002
196	330799	120	1581.470464089
196	337741	121	1586.3453881638
196	344962	122	1592.6731715938
196	352141	123	1600.4234472997
196	359218	124	1608.7010254432
196	366622	125	1616.9719941784
196	373959	126	1625.2527485704
196	381213	127	1633.5110908644
196	388842	128	1641.7581177503
196	396379	129	1650.403161413
196	403862	130	1660.3582082679
196	411681	131	1671.5038014567
196	419427	132	1678.9539201697
196	427070	133	1686.685835734
196	435138	134	1694.0946412515
196	443122	135	1695.8165144194
196	451063	136	1697.3021750497
196	459347	137	1698.4355303552
196	467600	138	1699.5295426901
196	475770	139	1700.518890732
196	484360	140	1701.0589317065
196	492884	141	1705.712797991
196	501362	142	1715.9285974279
196	510249	143	1728.1487961933
196	519052	144	1741.8723061942
197	323772	119	4.0955753460071
197	330799	120	5.8528269529213
197	337741	121	7.7901008041562
197	344962	122	9.7586787453816
197	352141	123	11.652645409443
197	359218	124	11.633745129205
197	366622	125	11.555766697643
197	373959	126	11.571972718959
197	381213	127	11.635083663315
197	388842	128	11.582101736249
197	396379	129	11.570363957072
197	403862	130	11.606079660499
197	411681	131	11.568770404393
197	419427	132	11.571053730641
197	427070	133	11.592870266273
197	435138	134	11.586544230141
197	443122	135	11.610281563269
197	451063	136	11.575346773822
197	459347	137	11.567030082595
197	467600	138	11.632407713587
197	475770	139	8.7443248571826
197	484360	140	7.1144489244486
197	492884	141	9.2437160486516
197	501362	142	11.112109390648
197	510249	143	13.304897309984
197	519052	144	13.952906026463
198	330799	120	1.7572516069142
198	337741	121	1.9372738512349
198	344962	122	1.9685779412254
198	352141	123	1.8939666640615
198	359218	124	-0.018900280238595
198	366622	125	-0.077978431561496
198	373959	126	0.016206021315885
198	381213	127	0.063110944356303
198	388842	128	-0.052981927066575
198	396379	129	-0.011737779176329
198	403862	130	0.035715703426394
198	411681	131	-0.037309256105218
198	419427	132	0.0022833262477064
198	427070	133	0.021816535631661
198	435138	134	-0.0063260361319415
198	443122	135	0.02373733312823
198	451063	136	-0.034934789447581
198	459347	137	-0.0083166912267902
198	467600	138	0.065377630991861
198	475770	139	-2.8880828564041
198	484360	140	-1.629875932734
198	492884	141	2.129267124203
198	501362	142	1.8683933419967
198	510249	143	2.1927879193355
198	519052	144	0.6480087164792
199	330799	120	3.8895199846441
199	337741	121	5.1665319658381
199	344962	122	6.2963931923996
199	352141	123	7.1370925796474
199	359218	124	1.7636764289378
199	366622	125	1.5928355297234
199	373959	126	1.8565792203921
199	381213	127	1.9937491131513
199	388842	128	1.6643602493962
199	396379	129	1.7785155291245
199	403862	130	1.9141970967256
199	411681	131	1.7070888879508
199	419427	132	1.8176720358995
199	427070	133	1.8741209911997
199	435138	134	1.7949629615649
199	443122	135	1.8810764680112
199	451063	136	1.7142150143491
199	459347	137	1.7877772891457
199	467600	138	1.9998334057687
199	475770	139	0.973
199	484360	140	0.973
199	492884	141	6.3723256142069
199	501362	142	6.7763939950564
199	510249	143	9.0005335446412
199	519052	144	4.21305308038
200	337741	121	2414.8587667713
200	344962	122	2411.9356476427
200	352141	123	2407.3229182976
200	359218	124	2402.4784541581
200	366622	125	2396.261341464
200	373959	126	2388.6892881746
200	381213	127	2380.1097181825
200	388842	128	2371.480562406
200	396379	129	2362.8385779589
200	403862	130	2354.212731083
200	411681	131	2345.5676451777
200	419427	132	2337.6977930415
200	427070	133	2333.9803263743
200	435138	134	2339.2790375793
200	443122	135	2348.6774863432
200	451063	136	2357.7936988953
200	459347	137	2368.8391460485
200	467600	138	2381.0090197454
200	475770	139	2393.2194849016
200	484360	140	2404.0863784129
200	492884	141	2414.4845741817
200	501362	142	2422.6303057054
200	510249	143	2429.7926384469
200	519052	144	2431.7935004812
201	337741	121	1578.45727483
201	344962	122	1579.5306289187
201	352141	123	1581.3903883481
201	359218	124	1586.2971631223
201	366622	125	1592.5942417784
201	373959	126	1600.2636885941
201	381213	127	1608.9536110284
201	388842	128	1617.6937570302
201	396379	129	1626.4468967095
201	403862	130	1635.1836912511
201	411681	131	1643.9399722796
201	419427	132	1653.3416579356
201	427070	133	1664.7087096982
201	435138	134	1674.8623155709
201	443122	135	1682.7780477842
201	451063	136	1690.9992765998
201	459347	137	1695.1452632314
201	467600	138	1696.8452605866
201	475770	139	1698.1344266031
201	484360	140	1699.1619639518
201	492884	141	1700.1451828005
201	501362	142	1700.8978128023
201	510249	143	1702.3829316087
201	519052	144	1711.6248146072
202	344962	122	3.9084870939956
202	352141	123	5.874779334117
202	359218	124	7.749979970462
202	366622	125	9.7091771264302
202	373959	126	11.708101021959
202	381213	127	12.306096960583
202	388842	128	12.291661037013
202	396379	129	12.290125675471
202	403862	130	12.26018264784
202	411681	131	12.296266429531
202	419427	132	12.295487453944
202	427070	133	12.321881480673
202	435138	134	12.322811019199
202	443122	135	12.308378465424
202	451063	136	12.327787484999
202	459347	137	12.223947306606
202	467600	138	12.335725510069
202	475770	139	12.306769693489
202	484360	140	10.191767703189
202	492884	141	10.648286586689
202	501362	142	6.1604626185043
202	510249	143	8.5004378505462
202	519052	144	10.43388239674
203	352141	123	1.9662922401214
203	359218	124	1.875200636345
203	366622	125	1.9591971559683
203	373959	126	1.998923895529
203	381213	127	0.59799593862362
203	388842	128	-0.014435923569836
203	396379	129	-0.0015353615419009
203	403862	130	-0.029943027631379
203	411681	131	0.036083781691268
203	419427	132	-0.00077897558687212
203	427070	133	0.026394026728813
203	435138	134	0.00092953852610655
203	443122	135	-0.014432553774677
203	451063	136	0.019409019574523
203	459347	137	-0.10384017839329
203	467600	138	0.11177820346318
203	475770	139	-0.028955816579982
203	484360	140	-2.1150019902994
203	492884	141	0.45651888349992
203	501362	142	-4.487823968185
203	510249	143	2.3399752320419
203	519052	144	1.9334445461933
204	352141	123	4.1960492258214
204	359218	124	5.0292565623112
204	366622	125	6.2472702646947
204	373959	126	7.4633298515258
204	381213	127	3.6493247234395
204	388842	128	1.831741742137
204	396379	129	1.8698191749474
204	403862	130	1.7831991726544
204	411681	131	1.9818508944346
204	419427	132	1.8725417212529
204	427070	133	1.9556104524423
204	435138	134	1.8800759492998
204	443122	135	1.833200956611
204	451063	136	1.9354291200863
204	459347	137	1.5625087802249
204	467600	138	2.2107889839011
204	475770	139	1.7899864068849
204	484360	140	0.973
204	492884	141	2.9067442092327
204	501362	142	0.973
204	510249	143	6.3704882508383
204	519052	144	6.5800363606779
205	359218	124	2414.8563562874
205	366622	125	2411.8709679041
205	373959	126	2407.1818897024
205	381213	127	2402.1964538632
205	388842	128	2395.8707096986
205	396379	129	2388.1726225768
205	403862	130	2379.0622569177
205	411681	131	2369.284105647
205	419427	132	2359.5108591294
205	427070	133	2349.7277949603
205	435138	134	2340.3260536151
205	443122	135	2334.3848240059
205	451063	136	2338.4995876732
205	459347	137	2349.1533645201
205	467600	138	2359.3774993346
205	475770	139	2372.0800061302
205	484360	140	2384.3198524402
205	492884	141	2395.7580036432
205	501362	142	2405.7836096468
205	510249	143	2414.4263560135
205	519052	144	2422.4947497234
206	359218	124	1578.4581599468
206	366622	125	1579.5543789808
206	373959	126	1581.5332308868
206	381213	127	1586.5827905713
206	388842	128	1592.9898979412
206	396379	129	1600.7869996661
206	403862	130	1610.0145449853
206	411681	131	1619.9184651319
206	419427	132	1629.8174174391
206	427070	133	1639.7263136748
206	435138	134	1649.9770753337
206	443122	135	1662.1124405023
206	451063	136	1674.2328628981
206	459347	137	1683.2072066441
206	467600	138	1692.4275875054
206	475770	139	1695.6296694595
206	484360	140	1697.2393235639
206	492884	141	1698.3744605016
206	501362	142	1699.3224484995
206	510249	143	1700.1396778831
206	519052	144	1700.8899632357
207	366622	125	4.076561782019
207	373959	126	6.0300077411707
207	381213	127	8.0398913262331
207	388842	128	9.8691572356539
207	396379	129	11.856883542017
207	403862	130	13.816196794832
207	411681	131	13.988701257549
207	419427	132	13.908018371476
207	427070	133	13.999320364496
207	435138	134	13.914301494569
207	443122	135	13.974527449239
207	451063	136	13.895035132754
207	459347	137	13.959200018653
207	467600	138	13.581001741424
207	475770	139	13.277314130181
207	484360	140	11.534119673916
207	492884	141	11.493714672908
207	501362	142	8.7009489674389
207	510249	143	9.0818789478461
207	519052	144	6.2457637847786
208	373959	126	1.9534459591517
208	381213	127	2.0098835850623
208	388842	128	1.8292659094208
208	396379	129	1.9877263063635
208	403862	130	1.959313252815
208	411681	131	0.17250446271672
208	419427	132	-0.0806828860729
208	427070	133	0.091301993019879
208	435138	134	-0.085018869927154
208	443122	135	0.060225954670459
208	451063	136	-0.079492316485847
208	459347	137	0.064164885899517
208	467600	138	-0.37819827722881
208	475770	139	-0.30368761124324
208	484360	140	-1.7431944562649
208	492884	141	-0.040405001007928
208	501362	142	-2.7927657054693
208	510249	143	0.38092998040719
208	519052	144	-2.8361151630675
209	373959	126	4.2599522117348
209	381213	127	5.4402316105309
209	388842	128	6.0257365365303
209	396379	129	7.5159088455084
209	403862	130	8.5440595713927
209	411681	131	2.6192496847287
209	419427	132	1.7590113636761
209	427070	133	2.3468159158218
209	435138	134	1.744989205754
209	443122	135	2.2390703797762
209	451063	136	1.7619290226125
209	459347	137	2.2505311075519
209	467600	138	0.973
209	475770	139	0.973
209	484360	140	0.973
209	492884	141	1.6928020290265
209	501362	142	0.973
209	510249	143	2.451062793259
209	519052	144	0.973
210	381213	127	2414.872761355
210	388842	128	2411.9224447131
210	396379	129	2407.2017448065
210	403862	130	2402.2198920035
210	411681	131	2395.9132891275
210	419427	132	2388.2888148269
210	427070	133	2379.6004809804
210	435138	134	2370.7816398107
210	443122	135	2361.9659346023
210	451063	136	2353.1437518785
210	459347	137	2344.3379144861
210	467600	138	2336.4442380159
210	475770	139	2333.8203767384
210	484360	140	2341.2463467361
210	492884	141	2350.7538852106
210	501362	142	2360.0816810859
210	510249	143	2372.1420431761
210	519052	144	2384.5697164998
211	381213	127	1578.4521360919
211	388842	128	1579.5354769649
211	396379	129	1581.5131204017
211	403862	130	1586.5590509642
211	411681	131	1592.9467708459
211	419427	132	1600.6693129232
211	427070	133	1609.4693981586
211	435138	134	1618.4016693318
211	443122	135	1627.3307642089
211	451063	136	1636.2664199173
211	459347	137	1645.1855200557
211	467600	138	1654.9464034745
211	475770	139	1666.9823895982
211	484360	140	1676.4510360239
211	492884	141	1684.6505962918
211	501362	142	1693.0626362469
211	510249	143	1695.6389420386
211	519052	144	1697.2690629633
212	388842	128	4.1116986193107
212	396379	129	6.0134645752603
212	403862	130	7.9613768164785
212	411681	131	9.8169851063978
212	419427	132	11.664017052131
212	427070	133	12.556940417388
212	435138	134	12.589902173065
212	443122	135	12.593475012274
212	451063	136	12.605470879374
212	459347	137	12.575460920937
212	467600	138	12.525921969931
212	475770	139	12.509446723708
212	484360	140	12.502243467351
212	492884	141	12.571053267916
212	501362	142	12.573785860876
212	510249	143	12.563784049964
212	519052	144	12.516927332168
213	396379	129	1.9017659559497
213	403862	130	1.9479122412181
213	411681	131	1.8556082899193
213	419427	132	1.8470319457329
213	427070	133	0.89292336525723
213	435138	134	0.032961755676661
213	443122	135	0.0035728392098111
213	451063	136	0.011995867099612
213	459347	137	-0.030009958436713
213	467600	138	-0.049538951006252
213	475770	139	-0.01647524622269
213	484360	140	-0.007203256357462
213	492884	141	0.068809800564777
213	501362	142	0.00273259296082
213	510249	143	-0.010001810912508
213	519052	144	-0.046856717795601
214	396379	129	4.1763027376299
214	403862	130	5.2781163258803
214	411681	131	6.0611419132328
214	419427	132	7.0113252169028
214	427070	133	4.6008361268545
214	435138	134	2.0016968972507
214	443122	135	1.9128584550721
214	451063	136	1.9395636894945
214	459347	137	1.8094043916572
214	467600	138	1.746257224522
214	475770	139	1.8446233990888
214	484360	140	1.8719291858692
214	492884	141	2.1084172353565
214	501362	142	1.9084814753651
214	510249	143	1.8689963727741
214	519052	144	1.7536310513284
215	403862	130	2414.8863263644
215	411681	131	2411.9856696981
215	419427	132	2407.3739534703
215	427070	133	2402.5908474257
215	435138	134	2396.3607585074
215	443122	135	2388.6971204035
215	451063	136	2379.8232185369
215	459347	137	2370.8487607297
215	467600	138	2361.8570117836
215	475770	139	2352.8860144569
215	484360	140	2343.9121537551
215	492884	141	2335.941163138
215	501362	142	2333.9854275798
215	510249	143	2342.267983889
215	519052	144	2351.9104239029
216	403862	130	1578.447155091
216	411681	131	1579.5122610806
216	419427	132	1581.3386967499
216	427070	133	1586.1833242262
216	435138	134	1592.49354601
216	443122	135	1600.2557556247
216	451063	136	1609.2437956994
216	459347	137	1618.333685088
216	467600	138	1627.4410880189
216	475770	139	1636.5274724178
216	484360	140	1645.6167570213
216	492884	141	1655.5904176179
216	501362	142	1668.0292835068
216	510249	143	1677.2760694642
216	519052	144	1685.6935918517
217	411681	131	4.0048083075285
217	419427	132	5.7535340106101
217	427070	133	7.7171274743728
217	435138	134	9.7902949811411
217	443122	135	11.766443537246
217	451063	136	12.833738922921
217	459347	137	12.746596719403
217	467600	138	12.798372246304
217	475770	139	12.775111639064
217	484360	140	12.72828451131
217	492884	141	12.768641712025
217	501362	142	12.805368918134
217	510249	143	12.822533641904
217	519052	144	12.82933492603
218	419427	132	1.7487257030816
218	427070	133	1.9635934637627
218	435138	134	2.0731675067684
218	443122	135	1.9761485561053
218	451063	136	1.0672953856747
218	459347	137	-0.087142203517724
218	467600	138	0.051775526900309
218	475770	139	-0.02326060723979
218	484360	140	-0.046827127754224
218	492884	141	0.040357200715226
218	501362	142	0.036727206108626
218	510249	143	0.017164723770692
218	519052	144	0.0068012841255403
219	419427	132	3.8299309999628
219	427070	133	5.1766758492827
219	435138	134	6.5605301039024
219	443122	135	7.4318934153282
219	451063	136	5.2254391822839
219	459347	137	1.6485189157629
219	467600	138	2.0807489640475
219	475770	139	1.847261249862
219	484360	140	1.7708638996399
219	492884	141	2.0424603573998
219	501362	142	2.0350510403615
219	510249	143	1.9763594969371
219	519052	144	1.9449833927869
220	427070	133	2414.8912831377
220	435138	134	2412.0911520009
220	443122	135	2407.4177384633
220	451063	136	2402.4270233106
220	459347	137	2395.9571898227
220	467600	138	2388.0577434632
220	475770	139	2379.5095859786
220	484360	140	2370.9773853121
220	492884	141	2362.4544006622
220	501362	142	2353.9057969209
220	510249	143	2345.3764214551
220	519052	144	2337.6291671749
221	427070	133	1578.4453349905
221	435138	134	1579.4735285295
221	443122	135	1581.2943485836
221	451063	136	1586.3492554855
221	459347	137	1592.9023054894
221	467600	138	1600.9033563817
221	475770	139	1609.5614622729
221	484360	140	1618.2034061067
221	492884	141	1626.8360153846
221	501362	142	1635.4945732728
221	510249	143	1644.1336555667
221	519052	144	1653.4295097264
222	435138	134	3.84462772246
222	443122	135	6.0217267192878
222	451063	136	8.0185948112771
222	459347	137	10.116063270117
222	467600	138	12.133586324715
222	475770	139	12.10849956191
222	484360	140	12.150947734989
222	492884	141	12.206906854164
222	501362	142	12.188451510077
222	510249	143	12.13332084305
222	519052	144	12.09172974086
223	443122	135	2.1770989968278
223	451063	136	1.9968680919893
223	459347	137	2.0974684588402
223	467600	138	2.0175230545978
223	475770	139	-0.025086762805003
223	484360	140	0.042448173079173
223	492884	141	0.055959119175096
223	501362	142	-0.018455344086979
223	510249	143	-0.055130667027552
223	519052	144	-0.04159110218985
224	443122	135	4.5801442297555
224	451063	136	5.4033559240893
224	459347	137	6.8071995836937
224	467600	138	7.7599750209703
224	475770	139	1.7849070602248
224	484360	140	1.9861968031941
224	492884	141	2.0315164024606
224	501362	142	1.8110299542281
224	510249	143	1.6991127022639
224	519052	144	1.7354236059943
225	451063	136	2414.8712564252
225	459347	137	2411.9621364229
225	467600	138	2407.4161939215
225	475770	139	2402.7132832669
225	484360	140	2396.683899232
225	492884	141	2389.2957969849
225	501362	142	2380.4732449597
225	510249	143	2370.7457293718
225	519052	144	2360.9556389519
226	451063	136	1578.452688694
226	459347	137	1579.5209023766
226	467600	138	1581.2959129913
226	475770	139	1586.0593135869
226	484360	140	1592.1662489735
226	492884	141	1599.6493787244
226	501362	142	1608.5854084836
226	510249	143	1618.43804166
226	519052	144	1628.354054519
227	459347	137	3.9879582281306
227	467600	138	5.7386257166497
227	475770	139	7.5188095029315
227	484360	140	9.454922921987
227	492884	141	11.443335678979
227	501362	142	13.292517139321
227	510249	143	13.885680944896
227	519052	144	13.889717270082
228	467600	138	1.7506674885191
228	475770	139	1.7801837862818
228	484360	140	1.9361134190555
228	492884	141	1.988412756992
228	501362	142	1.8491814603424
228	510249	143	0.59316380557489
228	519052	144	0.0040363251860267
229	467600	138	3.8254779196026
229	475770	139	4.737725593942
229	484360	140	6.0558852742486
229	492884	141	7.2841886262973
229	501362	142	7.8920449517502
229	510249	143	4.0121662796017
229	519052	144	2.041095532179
230	475770	139	2414.8603943934
230	484360	140	2411.8665103903
230	492884	141	2407.1439707126
230	501362	142	2402.0312354683
230	510249	143	2395.5685358859
230	519052	144	2387.7619677441
231	475770	139	1578.4566771761
231	484360	140	1579.5560157569
231	492884	141	1581.5716375997
231	501362	142	1586.7501340434
231	510249	143	1593.2959583849
231	519052	144	1601.202936437
232	484360	140	4.0839806697699
232	492884	141	6.1168490875671
232	501362	142	8.1791165376939
232	510249	143	10.070462543068
232	519052	144	11.722506807618
233	492884	141	2.0328684177971
233	501362	142	2.0622674501268
233	510249	143	1.8913460053736
233	519052	144	1.6520442645509
234	492884	141	4.4229938706906
234	501362	142	5.6201808933159
234	510249	143	6.280406274236
234	519052	144	6.4915345663186
235	501362	142	2414.8765830153
235	510249	143	2412.0665632912
235	519052	144	2407.6030233008
236	501362	142	1578.4507327983
236	510249	143	1579.4825573759
236	519052	144	1581.1215459649
237	510249	143	3.7465511067005
237	519052	144	5.6776229185335
238	519052	144	1.931071811833
239	519052	144	4.0430950703078

